0
                    3D
 Structure written by MMmdl.
124131  0  0  1  0            999 V2000
  -27.4698  -13.7027  -21.9387 N   0  0  0  0  0  0
  -28.7549  -14.1030  -21.3437 C   0  0  0  0  0  0
  -29.8870  -14.3657  -22.3798 C   0  0  0  0  0  0
  -29.5713  -13.8394  -23.7075 N   0  0  0  0  0  0
  -28.2392  -14.1200  -24.2460 C   0  0  0  0  0  0
  -27.2212  -14.5028  -23.1421 C   0  0  0  0  0  0
  -30.6455  -13.6396  -24.6018 C   0  0  0  0  0  0
  -30.9396  -14.5303  -25.6556 C   0  0  0  0  0  0
  -32.0407  -14.2509  -26.5083 C   0  0  0  0  0  0
  -32.7937  -13.1345  -26.2942 N   0  0  0  0  0  0
  -32.5135  -12.2659  -25.3195 N   0  0  0  0  0  0
  -31.4743  -12.5006  -24.4939 C   0  0  0  0  0  0
  -31.2141  -11.5276  -23.5470 N   0  0  0  0  0  0
  -32.4381  -15.1226  -27.6644 C   0  0  0  0  0  0
  -33.3815  -14.7454  -28.6749 C   0  0  0  0  0  0
  -33.6925  -15.6106  -29.7426 C   0  0  0  0  0  0
  -33.0841  -16.8698  -29.8457 C   0  0  0  0  0  0
  -32.1624  -17.2698  -28.8687 C   0  0  0  0  0  0
  -31.8515  -16.4093  -27.7998 C   0  0  0  0  0  0
  -34.0322  -13.5436  -28.6768 O   0  0  0  0  0  0
  -32.1237   -8.0798  -19.9764 N   0  0  0  0  0  0
  -29.7187   -7.6850  -19.8373 C   0  0  0  0  0  0
  -29.4710  -10.3273  -18.2579 C   0  0  0  0  0  0
  -31.9459  -10.5102  -18.2088 C   0  0  0  0  0  0
  -30.7228  -10.6769  -20.3869 C   0  0  0  0  0  0
  -27.6078   -6.3539  -19.6109 C   0  0  1  0  0  0
  -28.8662   -6.8817  -17.6167 C   0  0  0  0  0  0
  -26.7147   -7.2004  -20.5331 C   0  0  0  0  0  0
  -22.4985   -7.6884  -22.2371 C   0  0  0  0  0  0
  -21.1812   -7.4435  -21.7726 C   0  0  0  0  0  0
  -20.9086   -6.4301  -20.8303 C   0  0  0  0  0  0
  -23.2917   -5.8915  -20.7826 C   0  0  0  0  0  0
  -18.3930   -5.9999  -21.1837 C   0  0  0  0  0  0
  -17.5319   -5.5538  -19.1371 C   0  0  0  0  0  0
  -30.9295   -8.3946  -19.1729 C   0  0  2  0  0  0
  -30.7606   -9.9516  -19.0259 C   0  0  0  0  0  0
  -28.7814   -7.0678  -19.0709 N   0  0  0  0  0  0
  -29.6609   -7.6670  -21.0726 O   0  0  0  0  0  0
  -26.7888   -5.9191  -18.3836 C   0  0  0  0  0  0
  -27.7939   -5.8584  -17.2528 C   0  0  1  0  0  0
  -28.4009   -4.5770  -17.1970 O   0  0  0  0  0  0
  -26.6176   -8.4188  -20.3730 O   0  0  0  0  0  0
  -26.0210   -6.5260  -21.4544 N   0  0  0  0  0  0
  -24.9723   -7.0908  -22.2962 C   0  0  0  0  0  0
  -23.5583   -6.8875  -21.7495 C   0  0  0  0  0  0
  -21.9824   -5.6717  -20.3237 C   0  0  0  0  0  0
  -19.5355   -6.1359  -20.4188 C   0  0  0  0  0  0
  -17.2601   -5.6668  -20.4380 N   0  0  0  0  0  0
  -19.2047   -5.8694  -18.7220 S   0  0  0  0  0  0
  -18.2430   -6.1370  -22.6676 C   0  0  0  0  0  0
  -33.1581   -7.3105  -19.6085 C   0  0  0  0  0  0
  -34.2262   -7.1085  -20.6504 C   0  0  0  0  0  0
  -33.2305   -6.8023  -18.4867 O   0  0  0  0  0  0
  -33.8786   -7.5737  -21.9089 F   0  0  0  0  0  0
  -35.6787   -7.2341  -20.2529 C   0  0  0  0  0  0
  -35.1061   -5.8782  -20.6001 C   0  0  0  0  0  0
  -22.8148   -8.6653  -23.1617 O   0  0  0  0  0  0
  -23.9548  -10.9030  -21.3254 C   0  0  0  0  0  0
  -22.9321  -12.8792  -22.3179 C   0  0  0  0  0  0
  -25.0975  -11.6581  -21.0013 C   0  0  0  0  0  0
  -24.0689  -13.6396  -21.9768 C   0  0  0  0  0  0
  -22.8692  -11.5061  -21.9948 C   0  0  0  0  0  0
  -25.1592  -13.0299  -21.3215 C   0  0  0  0  0  0
  -21.6321  -10.6916  -22.3475 C   0  0  0  0  0  0
  -26.3985  -13.8282  -20.9518 C   0  0  0  0  0  0
  -21.8549   -9.6726  -23.4868 C   0  0  0  0  0  0
  -29.0636  -13.3218  -20.6485 H   0  0  0  0  0  0
  -28.6287  -15.0055  -20.7418 H   0  0  0  0  0  0
  -30.8269  -13.9509  -22.0106 H   0  0  0  0  0  0
  -30.0481  -15.4414  -22.4718 H   0  0  0  0  0  0
  -27.8891  -13.2219  -24.7577 H   0  0  0  0  0  0
  -28.2716  -14.9090  -24.9984 H   0  0  0  0  0  0
  -27.2955  -15.5656  -22.9030 H   0  0  0  0  0  0
  -26.2135  -14.3396  -23.5256 H   0  0  0  0  0  0
  -30.3227  -15.4009  -25.7937 H   0  0  0  0  0  0
  -30.2863  -11.6301  -23.1525 H   0  0  0  0  0  0
  -31.4533  -10.5831  -23.8109 H   0  0  0  0  0  0
  -34.4060  -15.3065  -30.4961 H   0  0  0  0  0  0
  -33.3280  -17.5271  -30.6689 H   0  0  0  0  0  0
  -31.6929  -18.2420  -28.9347 H   0  0  0  0  0  0
  -31.1469  -16.7814  -27.0739 H   0  0  0  0  0  0
  -33.8081  -13.0400  -27.8935 H   0  0  0  0  0  0
  -32.1225   -8.4032  -20.9346 H   0  0  0  0  0  0
  -29.3782  -11.4087  -18.1492 H   0  0  0  0  0  0
  -29.4702   -9.9119  -17.2505 H   0  0  0  0  0  0
  -28.5667   -9.9884  -18.7647 H   0  0  0  0  0  0
  -31.8475  -11.5834  -18.0412 H   0  0  0  0  0  0
  -32.8984  -10.3542  -18.7164 H   0  0  0  0  0  0
  -32.0179  -10.0344  -17.2299 H   0  0  0  0  0  0
  -30.6658  -11.7570  -20.2566 H   0  0  0  0  0  0
  -29.8621  -10.3799  -20.9868 H   0  0  0  0  0  0
  -31.6197  -10.4838  -20.9750 H   0  0  0  0  0  0
  -27.9728   -5.4770  -20.1488 H   0  0  0  0  0  0
  -28.6375   -7.8275  -17.1273 H   0  0  0  0  0  0
  -29.8471   -6.5538  -17.2697 H   0  0  0  0  0  0
  -20.3460   -8.0203  -22.1372 H   0  0  0  0  0  0
  -24.0817   -5.2659  -20.3938 H   0  0  0  0  0  0
  -16.7608   -5.2999  -18.4225 H   0  0  0  0  0  0
  -31.0844   -8.0031  -18.1712 H   0  0  0  0  0  0
  -26.2533   -4.9817  -18.5409 H   0  0  0  0  0  0
  -26.0385   -6.6727  -18.1326 H   0  0  0  0  0  0
  -27.3353   -6.0745  -16.2858 H   0  0  0  0  0  0
  -28.8167   -4.4035  -18.0358 H   0  0  0  0  0  0
  -26.1809   -5.5311  -21.5333 H   0  0  0  0  0  0
  -25.0269   -6.6151  -23.2758 H   0  0  0  0  0  0
  -25.1580   -8.1526  -22.4688 H   0  0  0  0  0  0
  -21.8032   -4.8853  -19.6035 H   0  0  0  0  0  0
  -19.1317   -5.7834  -23.1906 H   0  0  0  0  0  0
  -18.0851   -7.1771  -22.9524 H   0  0  0  0  0  0
  -17.3977   -5.5608  -23.0444 H   0  0  0  0  0  0
  -35.9051   -7.4283  -19.2061 H   0  0  0  0  0  0
  -36.3457   -7.7115  -20.9672 H   0  0  0  0  0  0
  -35.3816   -5.4303  -21.5522 H   0  0  0  0  0  0
  -34.9587   -5.1740  -19.7833 H   0  0  0  0  0  0
  -23.9221   -9.8553  -21.0609 H   0  0  0  0  0  0
  -22.1065  -13.3598  -22.8252 H   0  0  0  0  0  0
  -25.9297  -11.1800  -20.5022 H   0  0  0  0  0  0
  -24.1045  -14.6914  -22.2253 H   0  0  0  0  0  0
  -20.8305  -11.3715  -22.6386 H   0  0  0  0  0  0
  -21.2773  -10.1933  -21.4457 H   0  0  0  0  0  0
  -26.7464  -13.4512  -19.9878 H   0  0  0  0  0  0
  -26.1401  -14.8770  -20.7922 H   0  0  0  0  0  0
  -22.2282  -10.2051  -24.3620 H   0  0  0  0  0  0
  -20.9144   -9.2271  -23.8108 H   0  0  0  0  0  0
  1  2  1  0  0  0
  1  6  1  0  0  0
  1 65  1  0  0  0
  2  3  1  0  0  0
  2 67  1  0  0  0
  2 68  1  0  0  0
  3  4  1  0  0  0
  3 69  1  0  0  0
  3 70  1  0  0  0
  4  5  1  0  0  0
  4  7  1  0  0  0
  5  6  1  0  0  0
  5 71  1  0  0  0
  5 72  1  0  0  0
  6 73  1  0  0  0
  6 74  1  0  0  0
  7  8  2  0  0  0
  7 12  1  0  0  0
  8  9  1  0  0  0
  8 75  1  0  0  0
  9 10  2  0  0  0
  9 14  1  0  0  0
 10 11  1  0  0  0
 11 12  2  0  0  0
 12 13  1  0  0  0
 13 76  1  0  0  0
 13 77  1  0  0  0
 14 15  2  0  0  0
 14 19  1  0  0  0
 15 16  1  0  0  0
 15 20  1  0  0  0
 16 17  2  0  0  0
 16 78  1  0  0  0
 17 18  1  0  0  0
 17 79  1  0  0  0
 18 19  2  0  0  0
 18 80  1  0  0  0
 19 81  1  0  0  0
 20 82  1  0  0  0
 21 51  1  0  0  0
 21 83  1  0  0  0
 21 35  1  0  0  0
 22 35  1  0  0  0
 22 37  1  0  0  0
 22 38  2  0  0  0
 23 36  1  0  0  0
 23 84  1  0  0  0
 23 85  1  0  0  0
 23 86  1  0  0  0
 24 36  1  0  0  0
 24 87  1  0  0  0
 24 88  1  0  0  0
 24 89  1  0  0  0
 25 36  1  0  0  0
 25 90  1  0  0  0
 25 91  1  0  0  0
 25 92  1  0  0  0
 26 28  1  0  0  0
 26 37  1  0  0  0
 26 39  1  0  0  0
 26 93  1  0  0  0
 27 37  1  0  0  0
 27 40  1  0  0  0
 27 94  1  0  0  0
 27 95  1  0  0  0
 28 42  2  0  0  0
 28 43  1  0  0  0
 29 30  2  0  0  0
 29 45  1  0  0  0
 29 57  1  0  0  0
 30 31  1  0  0  0
 30 96  1  0  0  0
 31 46  2  0  0  0
 31 47  1  0  0  0
 32 45  2  0  0  0
 32 46  1  0  0  0
 32 97  1  0  0  0
 33 47  2  0  0  0
 33 48  1  0  0  0
 33 50  1  0  0  0
 34 48  2  0  0  0
 34 49  1  0  0  0
 34 98  1  0  0  0
 35 36  1  0  0  0
 35 99  1  0  0  0
 39 40  1  0  0  0
 39100  1  0  0  0
 39101  1  0  0  0
 40 41  1  0  0  0
 40102  1  0  0  0
 41103  1  0  0  0
 43 44  1  0  0  0
 43104  1  0  0  0
 44 45  1  0  0  0
 44105  1  0  0  0
 44106  1  0  0  0
 46107  1  0  0  0
 47 49  1  0  0  0
 50108  1  0  0  0
 50109  1  0  0  0
 50110  1  0  0  0
 51 52  1  0  0  0
 51 53  2  0  0  0
 52 54  1  0  0  0
 52 55  1  0  0  0
 52 56  1  0  0  0
 55 56  1  0  0  0
 55111  1  0  0  0
 55112  1  0  0  0
 56113  1  0  0  0
 56114  1  0  0  0
 57 66  1  0  0  0
 58 60  2  0  0  0
 58 62  1  0  0  0
 58115  1  0  0  0
 59 61  1  0  0  0
 59 62  2  0  0  0
 59116  1  0  0  0
 60 63  1  0  0  0
 60117  1  0  0  0
 61 63  2  0  0  0
 61118  1  0  0  0
 62 64  1  0  0  0
 63 65  1  0  0  0
 64 66  1  0  0  0
 64119  1  0  0  0
 64120  1  0  0  0
 65121  1  0  0  0
 65122  1  0  0  0
 66123  1  0  0  0
 66124  1  0  0  0
M  ISO  4   1 100  57 101  65 100  66 101
M  END
> <chiral flag>
0

> <version>
0

> <s_m_source_file>
/data/baiqing/PycharmProjects/Reinvent-master-3.2/result/LINK_invent/6HR2/scoring_process/rearranged_h_0000.sdf

> <i_m_source_file_index>
1

> <r_mmod_Potential_Energy-OPLS-2005>
27.4726867675781

> <r_mmod_Stretch_Energy-OPLS-2005>
30.0609092712402

> <r_mmod_Bend_Energy-OPLS-2005>
89.7905502319336

> <r_mmod_Torsional_Energy-OPLS-2005>
189.925750732422

> <r_mmod_Improper_Torsional_Energy-OPLS-2005>
7.17422294616699

> <r_mmod_Van_der_Waal_Energy-OPLS-2005>
118.063255310059

> <r_mmod_Electrostatic_Energy-OPLS-2005>
-233.629257202148

> <r_mmod_Solvation_Energy-OPLS-2005>
-181.539016723633

> <b_mmod_Minimization_Converged-OPLS-2005>
1

> <r_mmod_RMS_Derivative-OPLS-2005>
0.0230237990617752

$$$$
