0
                    3D
 Structure written by MMmdl.
164171  0  0  1  0            999 V2000
  -30.7513  -14.3885   20.6145 C   0  0  0  0  0  0
  -30.4167  -12.2496   19.4057 C   0  0  0  0  0  0
  -29.4886  -12.5012   18.2008 C   0  0  0  0  0  0
  -28.0087  -12.3784   18.6143 C   0  0  0  0  0  0
  -27.6682  -13.1993   19.8879 C   0  0  2  0  0  0
  -28.7014  -12.9381   21.0074 C   0  0  0  0  0  0
  -25.2607  -13.8169   20.5692 C   0  0  0  0  0  0
  -24.1839  -13.0459   20.9142 C   0  0  0  0  0  0
  -24.6368  -11.6909   20.8713 C   0  0  0  0  0  0
  -23.9037  -10.4298   21.0393 C   0  0  0  0  0  0
  -24.3598   -9.4210   21.9176 C   0  0  0  0  0  0
  -23.6283   -8.2242   22.0747 C   0  0  0  0  0  0
  -22.4268   -8.0276   21.3535 C   0  0  0  0  0  0
  -21.9893   -9.0241   20.4634 C   0  0  0  0  0  0
  -22.7211  -10.2132   20.3043 C   0  0  0  0  0  0
  -21.6844   -6.0737   22.5264 C   0  0  0  0  0  0
  -21.4011   -6.5641   23.8201 C   0  0  0  0  0  0
  -21.3655   -5.6796   24.9167 C   0  0  0  0  0  0
  -21.6036   -4.3058   24.7222 C   0  0  0  0  0  0
  -21.8817   -3.8147   23.4342 C   0  0  0  0  0  0
  -21.9184   -4.6962   22.3400 C   0  0  0  0  0  0
  -22.7873  -13.5256   21.1815 C   0  0  0  0  0  0
  -22.1662   -4.2153   21.0982 F   0  0  0  0  0  0
  -21.5629   -3.4541   25.7738 F   0  0  0  0  0  0
  -30.0411  -13.1942   20.4592 N   0  0  0  0  0  0
  -26.3036  -12.9310   20.3409 N   0  0  0  0  0  0
  -25.9281  -11.6469   20.5737 N   0  0  0  0  0  0
  -22.0518  -12.8256   22.0374 N   0  0  0  0  0  0
  -25.4377  -15.1885   20.4140 N   0  0  0  0  0  0
  -31.8216  -14.6579   20.0648 O   0  0  0  0  0  0
  -21.6629   -6.8872   21.4227 O   0  0  0  0  0  0
  -22.3564  -14.5588   20.6679 O   0  0  0  0  0  0
  -24.6076  -31.8720   23.2119 C   0  0  0  0  0  0
  -25.8997  -32.4830   23.8396 C   0  0  1  0  0  0
  -27.2562  -27.4899   20.0735 C   0  0  0  0  0  0
  -25.5880  -33.8618   24.2366 N   0  0  0  0  0  0
  -23.3929  -30.4944   21.5526 C   0  0  2  0  0  0
  -24.8425  -28.9601   20.1226 C   0  0  0  0  0  0
  -22.7361  -29.4699   22.5041 C   0  0  0  0  0  0
  -18.0259  -28.1370   22.8506 C   0  0  0  0  0  0
  -24.1511  -36.7320   23.2635 C   0  0  0  0  0  0
  -25.9156  -30.8503   21.3573 C   0  0  0  0  0  0
  -25.9973  -29.4840   20.7146 C   0  0  0  0  0  0
  -27.1999  -28.7502   20.6996 C   0  0  0  0  0  0
  -26.0768  -26.9616   19.4892 C   0  0  0  0  0  0
  -24.8738  -27.6922   19.5168 C   0  0  0  0  0  0
  -23.5993  -29.8189   20.1693 C   0  0  0  0  0  0
  -25.4112  -36.3112   24.0362 C   0  0  1  0  0  0
  -20.5841  -28.3651   23.1353 C   0  0  2  0  0  0
  -20.6751  -26.9404   22.5428 C   0  0  0  0  0  0
  -19.5742  -26.6412   21.5210 C   0  0  0  0  0  0
  -18.1918  -26.7928   22.1621 C   0  0  0  0  0  0
  -19.1503  -28.8827   23.2931 C   0  0  0  0  0  0
  -18.9440  -30.1431   23.8952 C   0  0  0  0  0  0
  -17.6443  -30.6582   24.0577 C   0  0  0  0  0  0
  -25.9028  -34.9473   23.5163 C   0  0  0  0  0  0
  -16.5337  -29.9096   23.6302 C   0  0  0  0  0  0
  -16.7254  -28.6502   23.0347 C   0  0  0  0  0  0
  -26.4479  -31.6540   25.0655 C   0  0  0  0  0  0
  -25.3803  -31.3581   26.1443 C   0  0  0  0  0  0
  -27.0274  -30.3006   24.5910 C   0  0  0  0  0  0
  -27.6115  -32.4199   25.7368 C   0  0  0  0  0  0
  -27.5599  -37.1816   24.8475 C   0  0  0  0  0  0
  -21.4102  -29.3025   22.3759 N   0  0  0  0  0  0
  -26.4305  -37.3784   23.9418 N   0  0  0  0  0  0
  -24.6571  -31.0849   22.1003 N   0  0  0  0  0  0
  -23.4159  -28.8250   23.3072 O   0  0  0  0  0  0
  -26.5587  -34.8910   22.4721 O   0  0  0  0  0  0
  -23.5287  -32.1451   23.7548 O   0  0  0  0  0  0
  -28.5759  -25.6414   19.3165 C   0  0  0  0  0  0
  -30.3383  -16.6593   21.2183 C   0  0  0  0  0  0
  -30.0101  -25.0946   19.3915 C   0  0  0  0  0  0
  -31.5460  -17.1303   22.0478 C   0  0  0  0  0  0
  -29.6612  -22.7330   19.5240 C   0  0  0  0  0  0
  -33.1358  -18.0343   20.4923 C   0  0  0  0  0  0
  -29.3407  -21.5587   18.5940 C   0  0  0  0  0  0
  -32.9313  -18.8771   19.2235 C   0  0  0  0  0  0
  -30.3223  -19.7475   17.4407 C   0  0  0  0  0  0
  -31.6419  -18.9973   17.2204 C   0  0  0  0  0  0
  -28.4771  -26.8529   20.0552 O   0  0  0  0  0  0
  -30.0630  -15.2709   21.3569 O   0  0  0  0  0  0
  -30.1036  -23.8352   18.7353 O   0  0  0  0  0  0
  -32.1030  -18.2941   21.4422 O   0  0  0  0  0  0
  -30.5391  -20.8572   18.3004 O   0  0  0  0  0  0
  -31.9773  -18.2401   18.3804 O   0  0  0  0  0  0
  -31.4630  -12.3476   19.1130 H   0  0  0  0  0  0
  -30.3002  -11.2290   19.7741 H   0  0  0  0  0  0
  -29.7056  -11.7926   17.3999 H   0  0  0  0  0  0
  -29.6779  -13.4946   17.7920 H   0  0  0  0  0  0
  -27.8034  -11.3213   18.7877 H   0  0  0  0  0  0
  -27.3620  -12.6820   17.7912 H   0  0  0  0  0  0
  -27.7317  -14.2540   19.6176 H   0  0  0  0  0  0
  -28.6519  -11.8985   21.3351 H   0  0  0  0  0  0
  -28.4781  -13.5306   21.8947 H   0  0  0  0  0  0
  -25.2740   -9.5703   22.4752 H   0  0  0  0  0  0
  -23.9984   -7.4638   22.7479 H   0  0  0  0  0  0
  -21.0814   -8.8750   19.8949 H   0  0  0  0  0  0
  -22.3649  -10.9671   19.6159 H   0  0  0  0  0  0
  -21.2008   -7.6151   23.9723 H   0  0  0  0  0  0
  -21.1487   -6.0520   25.9077 H   0  0  0  0  0  0
  -22.0600   -2.7608   23.2842 H   0  0  0  0  0  0
  -22.4111  -11.9895   22.4736 H   0  0  0  0  0  0
  -21.1141  -13.1286   22.2611 H   0  0  0  0  0  0
  -24.6779  -15.8527   20.5154 H   0  0  0  0  0  0
  -26.3079  -15.6205   20.1274 H   0  0  0  0  0  0
  -26.7046  -32.5588   23.1143 H   0  0  0  0  0  0
  -24.9990  -33.9752   25.0491 H   0  0  0  0  0  0
  -22.6788  -31.3090   21.4126 H   0  0  0  0  0  0
  -23.3750  -35.9676   23.3302 H   0  0  0  0  0  0
  -24.3644  -36.8904   22.2050 H   0  0  0  0  0  0
  -23.7282  -37.6546   23.6616 H   0  0  0  0  0  0
  -26.0138  -31.6134   20.5842 H   0  0  0  0  0  0
  -26.8085  -30.9158   21.9662 H   0  0  0  0  0  0
  -28.0957  -29.1552   21.1498 H   0  0  0  0  0  0
  -26.0596  -25.9990   18.9986 H   0  0  0  0  0  0
  -23.9841  -27.2812   19.0616 H   0  0  0  0  0  0
  -23.6957  -30.5874   19.4008 H   0  0  0  0  0  0
  -22.7255  -29.2292   19.8839 H   0  0  0  0  0  0
  -25.1278  -36.1995   25.0855 H   0  0  0  0  0  0
  -20.9953  -28.3226   24.1469 H   0  0  0  0  0  0
  -20.5658  -26.2272   23.3604 H   0  0  0  0  0  0
  -21.6623  -26.7456   22.1230 H   0  0  0  0  0  0
  -19.6904  -25.6341   21.1204 H   0  0  0  0  0  0
  -19.6674  -27.3245   20.6759 H   0  0  0  0  0  0
  -17.4193  -26.6703   21.4016 H   0  0  0  0  0  0
  -18.0313  -26.0040   22.8986 H   0  0  0  0  0  0
  -19.7909  -30.7224   24.2380 H   0  0  0  0  0  0
  -17.4988  -31.6262   24.5173 H   0  0  0  0  0  0
  -15.5337  -30.3018   23.7567 H   0  0  0  0  0  0
  -15.8659  -28.0820   22.7050 H   0  0  0  0  0  0
  -24.6017  -30.6865   25.7805 H   0  0  0  0  0  0
  -24.8935  -32.2685   26.4928 H   0  0  0  0  0  0
  -25.8221  -30.8747   27.0165 H   0  0  0  0  0  0
  -26.2769  -29.6802   24.0983 H   0  0  0  0  0  0
  -27.4151  -29.7185   25.4282 H   0  0  0  0  0  0
  -27.8560  -30.4376   23.8957 H   0  0  0  0  0  0
  -27.2822  -33.3507   26.1982 H   0  0  0  0  0  0
  -28.3869  -32.6720   25.0123 H   0  0  0  0  0  0
  -28.0825  -31.8263   26.5210 H   0  0  0  0  0  0
  -28.2615  -38.0114   24.7491 H   0  0  0  0  0  0
  -28.1096  -36.2637   24.6322 H   0  0  0  0  0  0
  -27.2322  -37.1492   25.8883 H   0  0  0  0  0  0
  -20.9258  -29.8748   21.6983 H   0  0  0  0  0  0
  -26.0207  -38.2876   24.1378 H   0  0  0  0  0  0
  -27.8701  -24.9167   19.7203 H   0  0  0  0  0  0
  -28.3135  -25.8128   18.2705 H   0  0  0  0  0  0
  -30.4974  -16.8829   20.1623 H   0  0  0  0  0  0
  -29.4518  -17.2227   21.5075 H   0  0  0  0  0  0
  -30.3582  -25.0251   20.4231 H   0  0  0  0  0  0
  -30.6772  -25.7906   18.8814 H   0  0  0  0  0  0
  -32.3009  -16.3510   22.1721 H   0  0  0  0  0  0
  -31.2057  -17.3756   23.0536 H   0  0  0  0  0  0
  -30.4155  -22.4593   20.2645 H   0  0  0  0  0  0
  -28.7604  -22.9812   20.0841 H   0  0  0  0  0  0
  -34.0781  -18.3125   20.9660 H   0  0  0  0  0  0
  -33.2248  -16.9799   20.2248 H   0  0  0  0  0  0
  -28.8576  -21.9164   17.6810 H   0  0  0  0  0  0
  -28.6382  -20.8859   19.0891 H   0  0  0  0  0  0
  -33.8768  -18.9454   18.6825 H   0  0  0  0  0  0
  -32.6357  -19.8951   19.4810 H   0  0  0  0  0  0
  -29.5719  -19.0678   17.8489 H   0  0  0  0  0  0
  -29.9459  -20.1101   16.4836 H   0  0  0  0  0  0
  -32.4414  -19.6692   16.9028 H   0  0  0  0  0  0
  -31.5002  -18.2916   16.4016 H   0  0  0  0  0  0
  1 25  1  0  0  0
  1 30  2  0  0  0
  1 81  1  0  0  0
  2  3  1  0  0  0
  2 25  1  0  0  0
  2 86  1  0  0  0
  2 87  1  0  0  0
  3  4  1  0  0  0
  3 88  1  0  0  0
  3 89  1  0  0  0
  4  5  1  0  0  0
  4 90  1  0  0  0
  4 91  1  0  0  0
  5  6  1  0  0  0
  5 26  1  0  0  0
  5 92  1  0  0  0
  6 25  1  0  0  0
  6 93  1  0  0  0
  6 94  1  0  0  0
  7  8  2  0  0  0
  7 26  1  0  0  0
  7 29  1  0  0  0
  8  9  1  0  0  0
  8 22  1  0  0  0
  9 10  1  0  0  0
  9 27  2  0  0  0
 10 11  2  0  0  0
 10 15  1  0  0  0
 11 12  1  0  0  0
 11 95  1  0  0  0
 12 13  2  0  0  0
 12 96  1  0  0  0
 13 14  1  0  0  0
 13 31  1  0  0  0
 14 15  2  0  0  0
 14 97  1  0  0  0
 15 98  1  0  0  0
 16 17  2  0  0  0
 16 21  1  0  0  0
 16 31  1  0  0  0
 17 18  1  0  0  0
 17 99  1  0  0  0
 18 19  2  0  0  0
 18100  1  0  0  0
 19 20  1  0  0  0
 19 24  1  0  0  0
 20 21  2  0  0  0
 20101  1  0  0  0
 21 23  1  0  0  0
 22 28  1  0  0  0
 22 32  2  0  0  0
 26 27  1  0  0  0
 28102  1  0  0  0
 28103  1  0  0  0
 29104  1  0  0  0
 29105  1  0  0  0
 33 34  1  0  0  0
 33 66  1  0  0  0
 33 69  2  0  0  0
 34 36  1  0  0  0
 34 59  1  0  0  0
 34106  1  0  0  0
 35 44  2  0  0  0
 35 45  1  0  0  0
 35 80  1  0  0  0
 36 56  1  0  0  0
 36107  1  0  0  0
 37 39  1  0  0  0
 37 47  1  0  0  0
 37 66  1  0  0  0
 37108  1  0  0  0
 38 43  2  0  0  0
 38 46  1  0  0  0
 38 47  1  0  0  0
 39 64  1  0  0  0
 39 67  2  0  0  0
 40 52  1  0  0  0
 40 53  2  0  0  0
 40 58  1  0  0  0
 41109  1  0  0  0
 41110  1  0  0  0
 41111  1  0  0  0
 41 48  1  0  0  0
 42 43  1  0  0  0
 42 66  1  0  0  0
 42112  1  0  0  0
 42113  1  0  0  0
 43 44  1  0  0  0
 44114  1  0  0  0
 45 46  2  0  0  0
 45115  1  0  0  0
 46116  1  0  0  0
 47117  1  0  0  0
 47118  1  0  0  0
 48 56  1  0  0  0
 48 65  1  0  0  0
 48119  1  0  0  0
 49 50  1  0  0  0
 49 53  1  0  0  0
 49 64  1  0  0  0
 49120  1  0  0  0
 50 51  1  0  0  0
 50121  1  0  0  0
 50122  1  0  0  0
 51 52  1  0  0  0
 51123  1  0  0  0
 51124  1  0  0  0
 52125  1  0  0  0
 52126  1  0  0  0
 53 54  1  0  0  0
 54 55  2  0  0  0
 54127  1  0  0  0
 55 57  1  0  0  0
 55128  1  0  0  0
 56 68  2  0  0  0
 57 58  2  0  0  0
 57129  1  0  0  0
 58130  1  0  0  0
 59 60  1  0  0  0
 59 61  1  0  0  0
 59 62  1  0  0  0
 60131  1  0  0  0
 60132  1  0  0  0
 60133  1  0  0  0
 61134  1  0  0  0
 61135  1  0  0  0
 61136  1  0  0  0
 62137  1  0  0  0
 62138  1  0  0  0
 62139  1  0  0  0
 63 65  1  0  0  0
 63140  1  0  0  0
 63141  1  0  0  0
 63142  1  0  0  0
 64143  1  0  0  0
 65144  1  0  0  0
 70 72  1  0  0  0
 70 80  1  0  0  0
 70145  1  0  0  0
 70146  1  0  0  0
 71 73  1  0  0  0
 71 81  1  0  0  0
 71147  1  0  0  0
 71148  1  0  0  0
 72 82  1  0  0  0
 72149  1  0  0  0
 72150  1  0  0  0
 73 83  1  0  0  0
 73151  1  0  0  0
 73152  1  0  0  0
 74 76  1  0  0  0
 74 82  1  0  0  0
 74153  1  0  0  0
 74154  1  0  0  0
 75 77  1  0  0  0
 75 83  1  0  0  0
 75155  1  0  0  0
 75156  1  0  0  0
 76 84  1  0  0  0
 76157  1  0  0  0
 76158  1  0  0  0
 77 85  1  0  0  0
 77159  1  0  0  0
 77160  1  0  0  0
 78 79  1  0  0  0
 78 84  1  0  0  0
 78161  1  0  0  0
 78162  1  0  0  0
 79 85  1  0  0  0
 79163  1  0  0  0
 79164  1  0  0  0
M  ISO  4   1 100  35 101  80 101  81 100
M  END
> <chiral flag>
0

> <version>
0

> <s_m_source_file>
/data/baiqing/PycharmProjects/Reinvent-master-3.2/result/LINK_invent/BTK/scoring_process/rearranged_h_0000.sdf

> <i_m_source_file_index>
1

> <r_mmod_Potential_Energy-OPLS-2005>
-77.1477661132812

> <r_mmod_Stretch_Energy-OPLS-2005>
30.713586807251

> <r_mmod_Bend_Energy-OPLS-2005>
94.5179443359375

> <r_mmod_Torsional_Energy-OPLS-2005>
164.432205200195

> <r_mmod_Improper_Torsional_Energy-OPLS-2005>
2.71497511863708

> <r_mmod_Van_der_Waal_Energy-OPLS-2005>
141.293197631836

> <r_mmod_Electrostatic_Energy-OPLS-2005>
-305.31494140625

> <r_mmod_Solvation_Energy-OPLS-2005>
-211.395965576172

> <b_mmod_Minimization_Converged-OPLS-2005>
0

> <r_mmod_RMS_Derivative-OPLS-2005>
2.66498851776123

$$$$
