0
                    3D
 Structure written by MMmdl.
144151  0  0  1  0            999 V2000
  -15.2907   12.1327  -15.4641 C   0  0  0  0  0  0
  -15.3364   11.4312  -16.7949 C   0  0  0  0  0  0
  -14.4182   10.3867  -16.9995 C   0  0  0  0  0  0
  -14.4232    9.5907  -18.1583 C   0  0  0  0  0  0
  -15.3744    9.8382  -19.1827 C   0  0  0  0  0  0
  -16.2876   10.8980  -18.9816 C   0  0  0  0  0  0
  -16.2893   11.7047  -17.8202 C   0  0  0  0  0  0
  -17.3832   12.7787  -17.7279 C   0  0  0  0  0  0
  -15.8744   15.2710  -18.0081 C   0  0  0  0  0  0
  -15.4802    8.9987  -20.4099 C   0  0  0  0  0  0
  -16.6556    8.8592  -21.0834 C   0  0  0  0  0  0
  -15.7639    7.6242  -22.9759 C   0  0  0  0  0  0
  -14.4712    7.6966  -22.2617 C   0  0  0  0  0  0
  -14.3212    8.3439  -21.0425 C   0  0  0  0  0  0
  -12.9777    8.1482  -20.6739 C   0  0  0  0  0  0
  -12.3273    7.4191  -21.6434 C   0  0  0  0  0  0
  -12.5518    8.7615  -19.3555 C   0  0  0  0  0  0
  -13.5906    7.2886  -17.6442 C   0  0  0  0  0  0
  -14.7517    6.9088  -16.9182 C   0  0  0  0  0  0
  -14.8340    5.6069  -16.3935 C   0  0  0  0  0  0
  -13.7686    4.7169  -16.5944 C   0  0  0  0  0  0
  -12.6430    5.1844  -17.2957 C   0  0  0  0  0  0
  -18.1689    8.0028  -22.8486 C   0  0  0  0  0  0
  -13.8312    3.4442  -16.1316 F   0  0  0  0  0  0
  -15.7972    7.7481  -16.7248 F   0  0  0  0  0  0
  -15.3358   13.4688  -15.4872 N   0  0  0  0  0  0
  -16.8191    8.1486  -22.2991 N   0  0  0  0  0  0
  -13.2703    7.1384  -22.6454 N   0  0  0  0  0  0
  -13.4715    8.5682  -18.2361 N   0  0  0  0  0  0
  -12.5526    6.4334  -17.8075 N   0  0  0  0  0  0
  -15.1962   11.4863  -14.4208 O   0  0  0  0  0  0
  -16.4802   13.7610  -20.1137 O   0  0  0  0  0  0
  -18.3574   14.9950  -18.9435 O   0  0  0  0  0  0
  -15.8457    7.0912  -24.0911 O   0  0  0  0  0  0
  -17.1043   14.2249  -18.8632 S   0  0  0  0  0  0
   -2.4656    3.6879  -20.1289 C   0  0  0  0  0  0
   -7.6108    4.5148  -16.7711 C   0  0  0  0  0  0
   -5.8946    3.6687  -18.3017 C   0  0  0  0  0  0
   -6.4963    2.3905  -18.2194 C   0  0  0  0  0  0
   -7.6238    2.1709  -17.4025 C   0  0  0  0  0  0
   -8.1740    3.2271  -16.6498 C   0  0  0  0  0  0
   -6.4807    4.7301  -17.5788 C   0  0  0  0  0  0
   -9.3321    2.9682  -15.6942 C   0  0  0  0  0  0
   -4.6803    3.8983  -19.0932 C   0  0  0  0  0  0
   -5.0190    6.2872  -20.0649 C   0  0  0  0  0  0
   -9.8173    4.8225  -14.1026 C   0  0  0  0  0  0
   -9.2450    5.5781  -12.8894 C   0  0  2  0  0  0
   -9.8740    5.0536  -11.5931 C   0  0  0  0  0  0
   -4.2825    5.0045  -19.8233 C   0  0  0  0  0  0
   -9.8368    6.2419  -10.6537 C   0  0  2  0  0  0
   -9.9402    7.4694  -11.5566 C   0  0  0  0  0  0
   -9.1707    7.8880  -13.9043 C   0  0  0  0  0  0
   -9.5189    9.4056  -13.8106 C   0  0  2  0  0  0
  -10.8051    9.8153  -14.6113 C   0  0  0  0  0  0
  -11.1280   11.3113  -14.4205 C   0  0  0  0  0  0
  -10.6577    9.5611  -16.1301 C   0  0  0  0  0  0
  -12.0170    9.0306  -14.0551 C   0  0  0  0  0  0
   -7.7204   10.9316  -13.2980 C   0  0  0  0  0  0
   -9.1682    3.7037  -14.4459 N   0  0  0  0  0  0
   -9.4794    7.0401  -12.8835 N   0  0  0  0  0  0
   -8.3356   10.1828  -14.2268 N   0  0  0  0  0  0
   -3.0191    4.8691  -20.4030 N   0  0  0  0  0  0
  -10.8029    5.2426  -14.7101 O   0  0  0  0  0  0
   -8.5849    7.4944  -14.9179 O   0  0  0  0  0  0
   -6.8787   10.4719  -12.5493 O   0  0  0  0  0  0
   -8.5964    6.2946   -9.9647 O   0  0  0  0  0  0
   -3.4581    2.6451  -19.1301 S   0  0  0  0  0  0
   -8.3001   12.2785  -12.8408 C   0  0  0  0  0  0
   -8.7151   12.1755  -11.3482 C   0  0  0  0  0  0
   -9.7419   13.2058  -10.8526 C   0  0  0  0  0  0
  -10.6507   12.5859   -9.7649 C   0  0  0  0  0  0
  -11.7631   13.4971   -9.2126 C   0  0  0  0  0  0
  -13.1125   13.3883   -9.9452 C   0  0  0  0  0  0
  -13.0762   13.9579  -11.3664 C   0  0  0  0  0  0
  -14.4335   13.9494  -12.0678 C   0  0  0  0  0  0
  -14.3152   14.5374  -13.4807 C   0  0  0  0  0  0
  -15.5808   14.3220  -14.3247 C   0  0  0  0  0  0
  -13.6878   10.1901  -16.2353 H   0  0  0  0  0  0
  -17.0123   11.1209  -19.7508 H   0  0  0  0  0  0
  -17.5812   13.1534  -16.7269 H   0  0  0  0  0  0
  -18.3272   12.3352  -18.0421 H   0  0  0  0  0  0
  -14.9315   14.7372  -17.9212 H   0  0  0  0  0  0
  -16.2640   15.5807  -17.0424 H   0  0  0  0  0  0
  -15.7089   16.1598  -18.6125 H   0  0  0  0  0  0
  -17.5764    9.2992  -20.7330 H   0  0  0  0  0  0
  -11.3048    7.0732  -21.7202 H   0  0  0  0  0  0
  -12.3884    9.8278  -19.5180 H   0  0  0  0  0  0
  -11.5687    8.3677  -19.0946 H   0  0  0  0  0  0
  -15.7131    5.2910  -15.8536 H   0  0  0  0  0  0
  -11.7961    4.5374  -17.4708 H   0  0  0  0  0  0
  -18.9424    8.2902  -22.1373 H   0  0  0  0  0  0
  -18.3641    6.9671  -23.1319 H   0  0  0  0  0  0
  -18.2835    8.6217  -23.7395 H   0  0  0  0  0  0
  -15.2972   13.9161  -16.3897 H   0  0  0  0  0  0
  -13.1200    6.6113  -23.4990 H   0  0  0  0  0  0
   -1.4865    3.4283  -20.5070 H   0  0  0  0  0  0
   -8.0208    5.3507  -16.2247 H   0  0  0  0  0  0
   -6.0837    1.5583  -18.7721 H   0  0  0  0  0  0
   -8.0492    1.1793  -17.3349 H   0  0  0  0  0  0
   -6.0509    5.7209  -17.6111 H   0  0  0  0  0  0
   -9.3800    1.9050  -15.4553 H   0  0  0  0  0  0
  -10.2731    3.2151  -16.1876 H   0  0  0  0  0  0
   -6.0983    6.1311  -20.0759 H   0  0  0  0  0  0
   -4.7505    6.7291  -21.0250 H   0  0  0  0  0  0
   -4.7962    7.0212  -19.2903 H   0  0  0  0  0  0
   -8.1640    5.4332  -12.8555 H   0  0  0  0  0  0
   -9.3629    4.1733  -11.1979 H   0  0  0  0  0  0
  -10.9158    4.7698  -11.7600 H   0  0  0  0  0  0
  -10.6433    6.2061   -9.9210 H   0  0  0  0  0  0
   -9.3589    8.3005  -11.1520 H   0  0  0  0  0  0
  -10.9804    7.7922  -11.6228 H   0  0  0  0  0  0
   -9.7411    9.6510  -12.7746 H   0  0  0  0  0  0
  -10.4406   11.9433  -14.9838 H   0  0  0  0  0  0
  -11.1064   11.6016  -13.3696 H   0  0  0  0  0  0
  -12.1280   11.5536  -14.7814 H   0  0  0  0  0  0
   -9.7524   10.0228  -16.5226 H   0  0  0  0  0  0
  -11.4857    9.9770  -16.7000 H   0  0  0  0  0  0
  -10.6142    8.4999  -16.3700 H   0  0  0  0  0  0
  -12.1256    9.1895  -12.9816 H   0  0  0  0  0  0
  -11.9361    7.9569  -14.2296 H   0  0  0  0  0  0
  -12.9583    9.3389  -14.4980 H   0  0  0  0  0  0
   -8.3967    3.4153  -13.8599 H   0  0  0  0  0  0
   -7.7125    9.5654  -14.7322 H   0  0  0  0  0  0
   -7.8967    6.3671  -10.6064 H   0  0  0  0  0  0
   -9.1149   12.6122  -13.4701 H   0  0  0  0  0  0
   -7.5264   13.0386  -12.9503 H   0  0  0  0  0  0
   -7.8287   12.2355  -10.7144 H   0  0  0  0  0  0
   -9.1178   11.1787  -11.1696 H   0  0  0  0  0  0
  -10.3218   13.5695  -11.6953 H   0  0  0  0  0  0
   -9.2210   14.0785  -10.4560 H   0  0  0  0  0  0
  -10.0156   12.2776   -8.9328 H   0  0  0  0  0  0
  -11.1043   11.6693  -10.1451 H   0  0  0  0  0  0
  -11.4321   14.5345   -9.1655 H   0  0  0  0  0  0
  -11.9477   13.2017   -8.1800 H   0  0  0  0  0  0
  -13.8707   13.9196   -9.3659 H   0  0  0  0  0  0
  -13.4369   12.3482   -9.9698 H   0  0  0  0  0  0
  -12.3990   13.3622  -11.9737 H   0  0  0  0  0  0
  -12.6822   14.9753  -11.3470 H   0  0  0  0  0  0
  -15.1654   14.5138  -11.4876 H   0  0  0  0  0  0
  -14.8006   12.9222  -12.1190 H   0  0  0  0  0  0
  -13.4453   14.1115  -13.9837 H   0  0  0  0  0  0
  -14.1140   15.6066  -13.4031 H   0  0  0  0  0  0
  -15.9490   15.2888  -14.6735 H   0  0  0  0  0  0
  -16.3895   13.9091  -13.7173 H   0  0  0  0  0  0
  1  2  1  0  0  0
  1 26  1  0  0  0
  1 31  2  0  0  0
  2  3  2  0  0  0
  2  7  1  0  0  0
  3  4  1  0  0  0
  3 78  1  0  0  0
  4  5  2  0  0  0
  4 29  1  0  0  0
  5  6  1  0  0  0
  5 10  1  0  0  0
  6  7  2  0  0  0
  6 79  1  0  0  0
  7  8  1  0  0  0
  8 35  1  0  0  0
  8 80  1  0  0  0
  8 81  1  0  0  0
  9 35  1  0  0  0
  9 82  1  0  0  0
  9 83  1  0  0  0
  9 84  1  0  0  0
 10 11  2  0  0  0
 10 14  1  0  0  0
 11 27  1  0  0  0
 11 85  1  0  0  0
 12 13  1  0  0  0
 12 27  1  0  0  0
 12 34  2  0  0  0
 13 14  2  0  0  0
 13 28  1  0  0  0
 14 15  1  0  0  0
 15 16  2  0  0  0
 15 17  1  0  0  0
 16 28  1  0  0  0
 16 86  1  0  0  0
 17 29  1  0  0  0
 17 87  1  0  0  0
 17 88  1  0  0  0
 18 19  2  0  0  0
 18 29  1  0  0  0
 18 30  1  0  0  0
 19 20  1  0  0  0
 19 25  1  0  0  0
 20 21  2  0  0  0
 20 89  1  0  0  0
 21 22  1  0  0  0
 21 24  1  0  0  0
 22 30  2  0  0  0
 22 90  1  0  0  0
 23 27  1  0  0  0
 23 91  1  0  0  0
 23 92  1  0  0  0
 23 93  1  0  0  0
 26 77  1  0  0  0
 26 94  1  0  0  0
 28 95  1  0  0  0
 32 35  2  0  0  0
 33 35  2  0  0  0
 36 62  2  0  0  0
 36 67  1  0  0  0
 36 96  1  0  0  0
 37 41  2  0  0  0
 37 42  1  0  0  0
 37 97  1  0  0  0
 38 39  1  0  0  0
 38 42  2  0  0  0
 38 44  1  0  0  0
 39 40  2  0  0  0
 39 98  1  0  0  0
 40 41  1  0  0  0
 40 99  1  0  0  0
 41 43  1  0  0  0
 42100  1  0  0  0
 43 59  1  0  0  0
 43101  1  0  0  0
 43102  1  0  0  0
 44 49  2  0  0  0
 44 67  1  0  0  0
 45 49  1  0  0  0
 45103  1  0  0  0
 45104  1  0  0  0
 45105  1  0  0  0
 46 59  1  0  0  0
 46 63  2  0  0  0
 46 47  1  0  0  0
 47 48  1  0  0  0
 47 60  1  0  0  0
 47106  1  0  0  0
 48 50  1  0  0  0
 48107  1  0  0  0
 48108  1  0  0  0
 49 62  1  0  0  0
 50 51  1  0  0  0
 50 66  1  0  0  0
 50109  1  0  0  0
 51 60  1  0  0  0
 51110  1  0  0  0
 51111  1  0  0  0
 52 53  1  0  0  0
 52 60  1  0  0  0
 52 64  2  0  0  0
 53 54  1  0  0  0
 53 61  1  0  0  0
 53112  1  0  0  0
 54 55  1  0  0  0
 54 56  1  0  0  0
 54 57  1  0  0  0
 55113  1  0  0  0
 55114  1  0  0  0
 55115  1  0  0  0
 56116  1  0  0  0
 56117  1  0  0  0
 56118  1  0  0  0
 57119  1  0  0  0
 57120  1  0  0  0
 57121  1  0  0  0
 58 61  1  0  0  0
 58 65  2  0  0  0
 58 68  1  0  0  0
 59122  1  0  0  0
 61123  1  0  0  0
 66124  1  0  0  0
 68 69  1  0  0  0
 68125  1  0  0  0
 68126  1  0  0  0
 69 70  1  0  0  0
 69127  1  0  0  0
 69128  1  0  0  0
 70 71  1  0  0  0
 70129  1  0  0  0
 70130  1  0  0  0
 71 72  1  0  0  0
 71131  1  0  0  0
 71132  1  0  0  0
 72 73  1  0  0  0
 72133  1  0  0  0
 72134  1  0  0  0
 73 74  1  0  0  0
 73135  1  0  0  0
 73136  1  0  0  0
 74 75  1  0  0  0
 74137  1  0  0  0
 74138  1  0  0  0
 75 76  1  0  0  0
 75139  1  0  0  0
 75140  1  0  0  0
 76 77  1  0  0  0
 76141  1  0  0  0
 76142  1  0  0  0
 77143  1  0  0  0
 77144  1  0  0  0
M  ISO  4  26 100  58 101  68 101  77 100
M  END
> <chiral flag>
0

> <version>
0

> <s_m_source_file>
/data/baiqing/PycharmProjects/Reinvent-master-3.2/result/LINK_invent/7KHH/scoring_process/rearranged_h_0000.sdf

> <i_m_source_file_index>
1

> <r_mmod_Potential_Energy-OPLS-2005>
-165.681594848633

> <r_mmod_Stretch_Energy-OPLS-2005>
32.5118827819824

> <r_mmod_Bend_Energy-OPLS-2005>
182.04248046875

> <r_mmod_Torsional_Energy-OPLS-2005>
204.192626953125

> <r_mmod_Improper_Torsional_Energy-OPLS-2005>
14.6191730499268

> <r_mmod_Van_der_Waal_Energy-OPLS-2005>
79.7162322998047

> <r_mmod_Electrostatic_Energy-OPLS-2005>
-516.283020019531

> <r_mmod_Solvation_Energy-OPLS-2005>
-240.779220581055

> <b_mmod_Minimization_Converged-OPLS-2005>
0

> <r_mmod_RMS_Derivative-OPLS-2005>
3.52235078811646

$$$$
