0
                    3D
 Structure written by MMmdl.
172180  0  0  1  0            999 V2000
   34.5776   56.9778   21.6716 C   0  0  0  0  0  0
   33.5387   56.9472   21.0264 C   0  0  0  0  0  0
   32.1789   56.7059   20.6439 C   0  0  0  0  0  0
   31.5882   55.4593   20.9313 C   0  0  0  0  0  0
   30.2295   55.2429   20.6491 C   0  0  0  0  0  0
   31.4345   57.7337   20.0499 C   0  0  0  0  0  0
   30.0867   57.5141   19.7517 C   0  0  0  0  0  0
   29.4755   56.2896   20.0450 C   0  0  0  0  0  0
   28.1507   56.2389   19.7077 O   0  0  0  0  0  0
   27.5434   54.9823   19.6940 C   0  0  0  0  0  0
   26.1233   55.1511   19.1245 C   0  0  0  0  0  0
   25.2632   56.1722   19.8837 C   0  0  0  0  0  0
   23.8220   56.1875   19.4570 C   0  0  0  0  0  0
   22.6862   55.8015   20.1486 C   0  0  0  0  0  0
   22.6002   55.2502   21.5282 C   0  0  0  0  0  0
   23.5199   54.5617   22.0076 O   0  0  0  0  0  0
   21.5709   55.4569   22.2091 O   0  5  0  0  0  0
   23.3901   56.8198   17.8897 S   0  0  0  0  0  0
   21.6976   56.4744   18.2318 C   0  0  0  0  0  0
   21.5019   55.9687   19.4331 N   0  0  0  0  0  0
   20.6743   56.7925   17.3516 N   0  0  0  0  0  0
   19.2761   56.9520   17.7527 C   0  0  0  0  0  0
   18.2833   56.4959   16.6789 C   0  0  0  0  0  0
   18.5923   57.0659   15.3117 C   0  0  0  0  0  0
   19.8988   57.5162   15.0059 C   0  0  0  0  0  0
   20.9790   57.4388   16.0797 C   0  0  0  0  0  0
   17.5714   57.1398   14.3476 C   0  0  0  0  0  0
   17.8442   57.6553   13.0720 C   0  0  0  0  0  0
   19.1395   58.0975   12.7590 C   0  0  0  0  0  0
   20.1855   58.0415   13.7102 C   0  0  0  0  0  0
   21.5455   58.6036   13.3563 C   0  0  0  0  0  0
   22.3016   59.0235   14.2347 O   0  0  0  0  0  0
   21.8682   58.5950   12.0553 N   0  0  0  0  0  0
   23.0202   59.1585   11.4633 C   0  0  0  0  0  0
   23.0822   59.1776   10.1286 N   0  0  0  0  0  0
   24.2926   59.7398    9.7344 C   0  0  0  0  0  0
   25.1656   60.1515   10.7857 C   0  0  0  0  0  0
   24.4016   59.8534   12.3322 S   0  0  0  0  0  0
   24.7363   59.9244    8.4096 C   0  0  0  0  0  0
   26.0023   60.4723    8.1354 C   0  0  0  0  0  0
   26.8511   60.8534    9.1918 C   0  0  0  0  0  0
   26.4328   60.6999   10.5262 C   0  0  0  0  0  0
   31.8598   35.1709   12.7559 C   0  0  0  0  0  0
   32.2929   38.5222   14.6636 C   0  0  0  0  0  0
   33.3177   39.4879   14.5615 C   0  0  0  0  0  0
   33.2669   40.6776   15.3124 C   0  0  0  0  0  0
   31.1400   39.9840   16.2608 C   0  0  0  0  0  0
   28.5726   43.2659   17.5801 C   0  0  1  0  0  0
   27.7449   42.2093   16.8313 C   0  0  0  0  0  0
   28.2310   45.7220   17.9172 C   0  0  0  0  0  0
   27.2992   46.9685   17.8222 C   0  0  2  0  0  0
   27.6257   47.2058   15.3063 C   0  0  0  0  0  0
   30.2190   43.9626   15.9565 O   0  0  0  0  0  0
   29.9838   43.3084   16.9774 C   0  0  0  0  0  0
   30.8930   42.5354   17.5775 N   0  0  0  0  0  0
   32.1986   42.1987   17.0301 C   0  0  0  0  0  0
   32.1886   40.9290   16.1820 C   0  0  0  0  0  0
   31.1940   38.7967   15.5071 C   0  0  0  0  0  0
   32.3823   37.2428   13.9561 C   0  0  0  0  0  0
   33.4675   36.4087   13.7634 C   0  0  0  0  0  0
   34.8834   36.5947   14.2152 C   0  0  0  0  0  0
   33.1510   35.2321   13.0791 N   0  0  0  0  0  0
   30.9290   36.5697   13.2498 S   0  0  0  0  0  0
   26.3224   42.7230   16.9011 C   0  0  1  0  0  0
   25.6948   42.2833   18.0951 O   0  0  0  0  0  0
   26.4505   44.2434   16.9594 C   0  0  0  0  0  0
   27.8011   44.5180   17.4639 N   0  0  0  0  0  0
   29.3320   45.8488   18.4699 O   0  0  0  0  0  0
   27.6817   47.9434   16.6545 C   0  0  0  0  0  0
   29.0787   48.5871   16.8161 C   0  0  0  0  0  0
   26.6241   49.0649   16.5712 C   0  0  0  0  0  0
   27.4542   47.6441   19.1065 N   0  0  0  0  0  0
   26.6646   47.4911   20.1676 C   0  0  0  0  0  0
   25.4709   47.1787   20.0731 O   0  0  0  0  0  0
   35.4448   56.7074   22.8174 C   0  0  0  0  0  0
   27.3789   47.5756   21.5372 C   0  0  0  0  0  0
   28.7787   48.2555   21.5283 C   0  0  0  0  0  0
   34.0238   54.8405   23.6838 C   0  0  0  0  0  0
   32.5655   54.9785   24.1754 C   0  0  0  0  0  0
   29.7104   50.2445   20.5106 C   0  0  0  0  0  0
   29.1770   51.4813   19.7695 C   0  0  0  0  0  0
   30.3722   54.0500   24.2659 C   0  0  0  0  0  0
   29.5263   52.7666   24.0808 C   0  0  0  0  0  0
   26.9246   51.7136   18.9011 C   0  0  0  0  0  0
   26.1076   51.5073   20.1948 C   0  0  0  0  0  0
   27.1585   52.5291   23.6165 C   0  0  0  0  0  0
   26.4095   51.7220   22.5386 C   0  0  0  0  0  0
   34.6904   56.1068   23.8854 O   0  0  0  0  0  0
   28.6001   49.6092   21.1303 O   0  0  0  0  0  0
   31.7438   53.8378   23.8954 O   0  0  0  0  0  0
   28.1686   51.0250   18.8654 O   0  0  0  0  0  0
   28.4481   52.9353   23.1572 O   0  0  0  0  0  0
   26.5853   52.3198   21.2544 O   0  0  0  0  0  0
   32.1720   54.6673   21.3727 H   0  0  0  0  0  0
   29.8311   54.2676   20.8829 H   0  0  0  0  0  0
   31.8897   58.6902   19.8280 H   0  0  0  0  0  0
   29.5033   58.2957   19.2888 H   0  0  0  0  0  0
   27.5685   54.5360   20.6821 H   0  0  0  0  0  0
   28.1451   54.3857   19.0039 H   0  0  0  0  0  0
   25.6041   54.1931   19.1303 H   0  0  0  0  0  0
   26.2311   55.4458   18.0737 H   0  0  0  0  0  0
   25.6815   57.1681   19.7390 H   0  0  0  0  0  0
   25.3658   55.9631   20.9491 H   0  0  0  0  0  0
   19.0995   58.0097   17.9645 H   0  0  0  0  0  0
   19.0705   56.4179   18.6808 H   0  0  0  0  0  0
   17.2723   56.7800   16.9723 H   0  0  0  0  0  0
   18.2895   55.4085   16.5986 H   0  0  0  0  0  0
   21.8328   56.9237   15.6340 H   0  0  0  0  0  0
   21.3017   58.4535   16.3222 H   0  0  0  0  0  0
   16.5750   56.7930   14.5789 H   0  0  0  0  0  0
   17.0559   57.7178   12.3353 H   0  0  0  0  0  0
   19.3060   58.5085   11.7737 H   0  0  0  0  0  0
   21.1879   58.1963   11.4303 H   0  0  0  0  0  0
   24.0912   59.6249    7.5921 H   0  0  0  0  0  0
   26.3283   60.5977    7.1089 H   0  0  0  0  0  0
   27.8259   61.2730    8.9748 H   0  0  0  0  0  0
   27.0768   60.9974   11.3409 H   0  0  0  0  0  0
   31.4533   34.3220   12.2222 H   0  0  0  0  0  0
   34.1655   39.3176   13.9138 H   0  0  0  0  0  0
   34.0698   41.3978   15.2302 H   0  0  0  0  0  0
   30.2925   40.1416   16.9123 H   0  0  0  0  0  0
   28.6317   43.0226   18.6431 H   0  0  0  0  0  0
   27.8729   41.2051   17.2358 H   0  0  0  0  0  0
   28.0409   42.1633   15.7801 H   0  0  0  0  0  0
   26.2548   46.6995   17.6884 H   0  0  0  0  0  0
   28.3268   46.3741   15.2876 H   0  0  0  0  0  0
   27.8769   47.8588   14.4709 H   0  0  0  0  0  0
   26.6248   46.8104   15.1259 H   0  0  0  0  0  0
   30.6147   42.0498   18.4207 H   0  0  0  0  0  0
   32.8950   42.0598   17.8586 H   0  0  0  0  0  0
   32.5891   43.0312   16.4409 H   0  0  0  0  0  0
   30.3929   38.0784   15.6145 H   0  0  0  0  0  0
   34.9259   36.9900   15.2302 H   0  0  0  0  0  0
   35.4158   37.2891   13.5660 H   0  0  0  0  0  0
   35.4388   35.6566   14.2117 H   0  0  0  0  0  0
   25.7302   42.3984   16.0439 H   0  0  0  0  0  0
   26.2004   42.6032   18.8338 H   0  0  0  0  0  0
   25.6541   44.6755   17.5693 H   0  0  0  0  0  0
   26.3578   44.6505   15.9522 H   0  0  0  0  0  0
   29.8856   47.8738   16.6817 H   0  0  0  0  0  0
   29.1988   49.0618   17.7856 H   0  0  0  0  0  0
   29.2285   49.3830   16.0865 H   0  0  0  0  0  0
   25.6894   48.7341   16.1166 H   0  0  0  0  0  0
   26.9542   49.9370   15.9999 H   0  0  0  0  0  0
   26.3378   49.3722   17.5651 H   0  0  0  0  0  0
   28.3946   47.9645   19.2831 H   0  0  0  0  0  0
   36.3266   56.1350   22.5203 H   0  0  0  0  0  0
   35.7657   57.6936   23.1569 H   0  0  0  0  0  0
   26.7345   48.0829   22.2502 H   0  0  0  0  0  0
   27.4897   46.5514   21.9039 H   0  0  0  0  0  0
   29.4551   47.7308   20.8526 H   0  0  0  0  0  0
   29.2334   48.2318   22.5246 H   0  0  0  0  0  0
   34.0374   54.4916   22.6539 H   0  0  0  0  0  0
   34.5339   54.0631   24.2430 H   0  0  0  0  0  0
   32.1275   55.8644   23.7089 H   0  0  0  0  0  0
   32.5857   55.1645   25.2459 H   0  0  0  0  0  0
   30.4624   50.5019   21.2494 H   0  0  0  0  0  0
   30.1963   49.5892   19.7931 H   0  0  0  0  0  0
   29.9868   51.9313   19.1961 H   0  0  0  0  0  0
   28.8555   52.2592   20.4635 H   0  0  0  0  0  0
   30.3150   54.3816   25.3017 H   0  0  0  0  0  0
   29.9381   54.8628   23.6811 H   0  0  0  0  0  0
   29.2224   52.3898   25.0574 H   0  0  0  0  0  0
   30.1388   51.9877   23.6310 H   0  0  0  0  0  0
   27.0437   52.7320   18.5805 H   0  0  0  0  0  0
   26.3192   51.3401   18.0884 H   0  0  0  0  0  0
   26.1037   50.4470   20.4553 H   0  0  0  0  0  0
   25.0646   51.7895   20.0214 H   0  0  0  0  0  0
   27.2207   51.9104   24.5111 H   0  0  0  0  0  0
   26.6072   53.4247   23.8995 H   0  0  0  0  0  0
   25.3527   51.6207   22.8103 H   0  0  0  0  0  0
   26.8127   50.7099   22.5177 H   0  0  0  0  0  0
  1  2  3  0  0  0
  1 75  1  0  0  0
  2  3  1  0  0  0
  3  6  1  0  0  0
  3  4  2  0  0  0
  4  5  1  0  0  0
  4 94  1  0  0  0
  5  8  2  0  0  0
  5 95  1  0  0  0
  6  7  2  0  0  0
  6 96  1  0  0  0
  7  8  1  0  0  0
  7 97  1  0  0  0
  8  9  1  0  0  0
  9 10  1  0  0  0
 10 11  1  0  0  0
 10 98  1  0  0  0
 10 99  1  0  0  0
 11 12  1  0  0  0
 11100  1  0  0  0
 11101  1  0  0  0
 12 13  1  0  0  0
 12102  1  0  0  0
 12103  1  0  0  0
 13 14  2  0  0  0
 13 18  1  0  0  0
 14 15  1  0  0  0
 14 20  1  0  0  0
 15 16  2  0  0  0
 15 17  1  0  0  0
 18 19  1  0  0  0
 19 20  2  0  0  0
 19 21  1  0  0  0
 21 26  1  0  0  0
 21 22  1  0  0  0
 22 23  1  0  0  0
 22104  1  0  0  0
 22105  1  0  0  0
 23 24  1  0  0  0
 23106  1  0  0  0
 23107  1  0  0  0
 24 25  2  0  0  0
 24 27  1  0  0  0
 25 30  1  0  0  0
 25 26  1  0  0  0
 26108  1  0  0  0
 26109  1  0  0  0
 27 28  2  0  0  0
 27110  1  0  0  0
 28 29  1  0  0  0
 28111  1  0  0  0
 29 30  2  0  0  0
 29112  1  0  0  0
 30 31  1  0  0  0
 31 32  2  0  0  0
 31 33  1  0  0  0
 33 34  1  0  0  0
 33113  1  0  0  0
 34 35  2  0  0  0
 34 38  1  0  0  0
 35 36  1  0  0  0
 36 37  2  0  0  0
 36 39  1  0  0  0
 37 38  1  0  0  0
 37 42  1  0  0  0
 39 40  2  0  0  0
 39114  1  0  0  0
 40 41  1  0  0  0
 40115  1  0  0  0
 41 42  2  0  0  0
 41116  1  0  0  0
 42117  1  0  0  0
 43 62  2  0  0  0
 43 63  1  0  0  0
 43118  1  0  0  0
 44 58  1  0  0  0
 44 59  1  0  0  0
 44 45  2  0  0  0
 45 46  1  0  0  0
 45119  1  0  0  0
 46 57  2  0  0  0
 46120  1  0  0  0
 47 57  1  0  0  0
 47 58  2  0  0  0
 47121  1  0  0  0
 48 54  1  0  0  0
 48 49  1  0  0  0
 48 67  1  0  0  0
 48122  1  0  0  0
 49 64  1  0  0  0
 49123  1  0  0  0
 49124  1  0  0  0
 50 51  1  0  0  0
 50 67  1  0  0  0
 50 68  2  0  0  0
 51 69  1  0  0  0
 51 72  1  0  0  0
 51125  1  0  0  0
 52 69  1  0  0  0
 52126  1  0  0  0
 52127  1  0  0  0
 52128  1  0  0  0
 53 54  2  0  0  0
 54 55  1  0  0  0
 55 56  1  0  0  0
 55129  1  0  0  0
 56 57  1  0  0  0
 56130  1  0  0  0
 56131  1  0  0  0
 58132  1  0  0  0
 59 60  2  0  0  0
 59 63  1  0  0  0
 60 61  1  0  0  0
 60 62  1  0  0  0
 61133  1  0  0  0
 61134  1  0  0  0
 61135  1  0  0  0
 64 66  1  0  0  0
 64 65  1  0  0  0
 64136  1  0  0  0
 65137  1  0  0  0
 66 67  1  0  0  0
 66138  1  0  0  0
 66139  1  0  0  0
 69 70  1  0  0  0
 69 71  1  0  0  0
 70140  1  0  0  0
 70141  1  0  0  0
 70142  1  0  0  0
 71143  1  0  0  0
 71144  1  0  0  0
 71145  1  0  0  0
 72 73  1  0  0  0
 72146  1  0  0  0
 73 74  2  0  0  0
 73 76  1  0  0  0
 75 88  1  0  0  0
 75147  1  0  0  0
 75148  1  0  0  0
 76 77  1  0  0  0
 76149  1  0  0  0
 76150  1  0  0  0
 77 89  1  0  0  0
 77151  1  0  0  0
 77152  1  0  0  0
 78 79  1  0  0  0
 78 88  1  0  0  0
 78153  1  0  0  0
 78154  1  0  0  0
 79 90  1  0  0  0
 79155  1  0  0  0
 79156  1  0  0  0
 80 81  1  0  0  0
 80 89  1  0  0  0
 80157  1  0  0  0
 80158  1  0  0  0
 81 91  1  0  0  0
 81159  1  0  0  0
 81160  1  0  0  0
 82 83  1  0  0  0
 82 90  1  0  0  0
 82161  1  0  0  0
 82162  1  0  0  0
 83 92  1  0  0  0
 83163  1  0  0  0
 83164  1  0  0  0
 84 85  1  0  0  0
 84 91  1  0  0  0
 84165  1  0  0  0
 84166  1  0  0  0
 85 93  1  0  0  0
 85167  1  0  0  0
 85168  1  0  0  0
 86 87  1  0  0  0
 86 92  1  0  0  0
 86169  1  0  0  0
 86170  1  0  0  0
 87 93  1  0  0  0
 87171  1  0  0  0
 87172  1  0  0  0
M  CHG  1  17  -1
M  ISO  4   1 100  73 101  75 100  76 101
M  END
> <chiral flag>
0

> <version>
0

> <s_m_source_file>
/data/baiqing/PycharmProjects/Reinvent-master-3.2/result/LINK_invent/6ZHC/scoring_process/rearranged_h_0000.sdf

> <i_m_source_file_index>
1

> <r_mmod_Potential_Energy-OPLS-2005>
-353.670471191406

> <r_mmod_Stretch_Energy-OPLS-2005>
31.3856868743896

> <r_mmod_Bend_Energy-OPLS-2005>
177.642044067383

> <r_mmod_Torsional_Energy-OPLS-2005>
116.611183166504

> <r_mmod_Improper_Torsional_Energy-OPLS-2005>
5.54496717453003

> <r_mmod_Van_der_Waal_Energy-OPLS-2005>
105.04369354248

> <r_mmod_Electrostatic_Energy-OPLS-2005>
-287.904174804688

> <r_mmod_Solvation_Energy-OPLS-2005>
-561.226135253906

> <b_mmod_Minimization_Converged-OPLS-2005>
0

> <r_mmod_RMS_Derivative-OPLS-2005>
15.0441160202026

$$$$
