0
                    3D
 Structure written by MMmdl.
170177  0  0  1  0            999 V2000
   -7.5361    7.1471   16.1060 N   0  0  0  0  0  0
   -7.8320    7.6286   17.4599 C   0  0  0  0  0  0
   -9.2076    7.1316   17.9431 C   0  0  0  0  0  0
   -9.2646    5.6687   17.9200 N   0  0  0  0  0  0
   -9.0015    5.1925   16.5697 C   0  0  0  0  0  0
   -7.6356    5.6827   16.0875 C   0  0  0  0  0  0
  -10.4939    5.1284   18.4631 C   0  0  0  0  0  0
  -11.7464    5.5813   17.7309 C   0  0  0  0  0  0
  -12.4289    6.7165   18.1939 C   0  0  0  0  0  0
  -13.6354    7.1532   17.6002 C   0  0  0  0  0  0
  -14.1213    6.4366   16.4820 C   0  0  0  0  0  0
  -13.4263    5.3152   15.9858 C   0  0  0  0  0  0
  -12.2433    4.8804   16.6135 C   0  0  0  0  0  0
  -14.3434    8.3186   18.1745 C   0  0  0  0  0  0
  -14.1490    8.6403   19.5334 C   0  0  0  0  0  0
  -14.7390    9.7638   20.1323 C   0  0  0  0  0  0
  -15.6262   10.5801   19.3777 C   0  0  0  0  0  0
  -15.8446   10.2494   18.0144 C   0  0  0  0  0  0
  -15.2063    9.1419   17.4196 C   0  0  0  0  0  0
  -16.2384   11.7087   19.9723 N   0  0  0  0  0  0
  -17.3955   12.2942   19.2855 C   0  0  0  0  0  0
  -18.0459   13.4063   20.1318 C   0  0  0  0  0  0
  -17.0566   14.4348   20.4609 N   0  0  0  0  0  0
  -15.9736   13.8241   21.2265 C   0  0  0  0  0  0
  -15.2907   12.7595   20.3553 C   0  0  0  0  0  0
  -17.6869   15.4440   21.2893 C   0  0  0  0  0  0
  -14.4532    9.9923   21.5113 N   0  0  0  0  0  0
  -13.2294   10.2542   22.0307 C   0  0  0  0  0  0
  -13.2025   10.2512   23.5019 C   0  0  0  0  0  0
  -13.7885    9.2220   24.1525 C   0  0  0  0  0  0
  -13.7620    9.1219   25.5427 N   0  0  0  0  0  0
  -13.1653   10.0171   26.3490 C   0  0  0  0  0  0
  -12.5091   11.1310   25.6606 C   0  0  0  0  0  0
  -12.4962   11.2645   24.3030 C   0  0  0  0  0  0
  -11.8104   12.4724   23.6614 C   0  0  0  0  0  0
  -12.2458   10.4590   21.3160 O   0  0  0  0  0  0
  -13.1909    9.8759   27.5761 O   0  0  0  0  0  0
  -11.4385   13.3731   24.5775 F   0  0  0  0  0  0
  -10.7113   12.0937   23.0062 F   0  0  0  0  0  0
  -12.6311   13.0872   22.8062 F   0  0  0  0  0  0
   -6.0231  -11.4395   14.8795 C   0  0  0  0  0  0
   -6.4178  -12.4624   15.7134 C   0  0  0  0  0  0
   -4.2518  -13.0673   15.3979 C   0  0  0  0  0  0
   -6.8067  -10.2979   14.3960 C   0  0  0  0  0  0
   -6.6997   -9.8497   13.0650 C   0  0  0  0  0  0
   -8.5021   -8.5652   14.8066 C   0  0  0  0  0  0
   -7.4872   -8.7805   12.6081 C   0  0  0  0  0  0
   -8.3977   -8.1300   13.4730 C   0  0  0  0  0  0
   -9.2732   -6.9883   12.9781 C   0  0  0  0  0  0
   -7.9068   -5.5117   11.5530 C   0  0  0  0  0  0
   -7.4127   -5.1843   10.1354 C   0  0  1  0  0  0
   -7.7112   -9.6368   15.2593 C   0  0  0  0  0  0
   -4.3455  -11.6209   14.4126 S   0  0  0  0  0  0
   -5.3992  -13.3782   16.0051 N   0  0  0  0  0  0
   -8.8224   -6.4751   11.6888 N   0  0  0  0  0  0
   -7.4333   -4.9092   12.5162 O   0  0  0  0  0  0
   -7.2261   -3.7307    9.8886 N   0  0  0  0  0  0
   -5.9040   -3.4729    9.3198 C   0  0  0  0  0  0
   -5.3109   -4.8531    9.0369 C   0  0  1  0  0  0
   -6.0328   -5.8128    9.9548 C   0  0  0  0  0  0
   -8.2058   -2.8045   10.0619 C   0  0  0  0  0  0
   -5.6007   -5.1849    7.6942 O   0  0  0  0  0  0
   -9.3388   -3.1531   10.4020 O   0  0  0  0  0  0
   -7.9501   -1.2843    9.8464 C   0  0  2  0  0  0
   -7.7651   -0.5129   11.1994 C   0  0  0  0  0  0
   -9.1109   -0.7165    9.1528 N   0  0  0  0  0  0
   -9.0550   -0.4761   12.0537 C   0  0  0  0  0  0
   -6.6388   -1.1555   12.0379 C   0  0  0  0  0  0
   -7.3546    0.9481   10.9165 C   0  0  0  0  0  0
   -7.7790  -12.6734   16.3028 C   0  0  0  0  0  0
   -4.5312    7.4988   12.2149 C   0  0  0  0  0  0
   -9.2143   -0.2349    7.9082 C   0  0  0  0  0  0
   -3.1826    6.9400   11.7388 C   0  0  0  0  0  0
   -8.0096   -0.2207    6.9566 C   0  0  0  0  0  0
   -3.2353    6.2688   10.3390 C   0  0  0  0  0  0
   -7.3344    1.1706    6.8579 C   0  0  0  0  0  0
   -4.1206    5.0001   10.2365 C   0  0  0  0  0  0
   -5.8404    1.1674    7.2464 C   0  0  0  0  0  0
   -4.3138    4.4959    8.7893 C   0  0  0  0  0  0
   -5.1768    2.5653    7.2870 C   0  0  0  0  0  0
   -5.1112    3.1752    8.7106 C   0  0  0  0  0  0
   -6.2335    7.5802   15.5898 C   0  0  0  0  0  0
   -6.1733    7.5815   14.0452 C   0  0  0  0  0  0
   -4.8234    7.3981   13.5189 N   0  0  0  0  0  0
   -5.3195    7.9847   11.4006 O   0  0  0  0  0  0
  -10.2894    0.2051    7.5054 O   0  0  0  0  0  0
   -7.8250    8.7204   17.4723 H   0  0  0  0  0  0
   -7.0566    7.3066   18.1580 H   0  0  0  0  0  0
   -9.9802    7.5574   17.2990 H   0  0  0  0  0  0
   -9.3992    7.5047   18.9514 H   0  0  0  0  0  0
   -9.7694    5.5350   15.8759 H   0  0  0  0  0  0
   -9.0195    4.1000   16.5465 H   0  0  0  0  0  0
   -6.8550    5.2417   16.7114 H   0  0  0  0  0  0
   -7.4715    5.2945   15.0815 H   0  0  0  0  0  0
  -10.5851    5.4149   19.5129 H   0  0  0  0  0  0
  -10.4554    4.0381   18.4646 H   0  0  0  0  0  0
  -11.9933    7.2445   19.0280 H   0  0  0  0  0  0
  -15.0413    6.7328   16.0010 H   0  0  0  0  0  0
  -13.8143    4.7733   15.1352 H   0  0  0  0  0  0
  -11.7292    4.0028   16.2445 H   0  0  0  0  0  0
  -13.5317    8.0161   20.1608 H   0  0  0  0  0  0
  -16.4868   10.8429   17.3824 H   0  0  0  0  0  0
  -15.3816    8.9396   16.3734 H   0  0  0  0  0  0
  -18.1357   11.5188   19.0761 H   0  0  0  0  0  0
  -17.0916   12.7151   18.3254 H   0  0  0  0  0  0
  -18.4742   12.9771   21.0400 H   0  0  0  0  0  0
  -18.8725   13.8497   19.5733 H   0  0  0  0  0  0
  -16.3388   13.3802   22.1549 H   0  0  0  0  0  0
  -15.2396   14.5830   21.5046 H   0  0  0  0  0  0
  -14.8928   13.2265   19.4521 H   0  0  0  0  0  0
  -14.4234   12.3811   20.8866 H   0  0  0  0  0  0
  -18.5027   15.9301   20.7514 H   0  0  0  0  0  0
  -16.9732   16.2216   21.5674 H   0  0  0  0  0  0
  -18.0972   15.0210   22.2082 H   0  0  0  0  0  0
  -15.2454   10.0344   22.1357 H   0  0  0  0  0  0
  -14.3005    8.4005   23.6698 H   0  0  0  0  0  0
  -14.2284    8.3310   25.9672 H   0  0  0  0  0  0
  -12.0136   11.8670   26.2755 H   0  0  0  0  0  0
   -3.3656  -13.6751   15.5189 H   0  0  0  0  0  0
   -6.0241  -10.3402   12.3774 H   0  0  0  0  0  0
   -9.1896   -8.0824   15.4875 H   0  0  0  0  0  0
   -7.3805   -8.4895   11.5747 H   0  0  0  0  0  0
   -9.3102   -6.1933   13.7248 H   0  0  0  0  0  0
  -10.2944   -7.3561   12.8699 H   0  0  0  0  0  0
   -8.1063   -5.5697    9.3867 H   0  0  0  0  0  0
   -7.8048   -9.9463   16.2890 H   0  0  0  0  0  0
   -9.1968   -6.9123   10.8577 H   0  0  0  0  0  0
   -5.2930   -2.9645   10.0658 H   0  0  0  0  0  0
   -5.9336   -2.8410    8.4301 H   0  0  0  0  0  0
   -4.2301   -4.8706    9.1837 H   0  0  0  0  0  0
   -6.0812   -6.8347    9.5750 H   0  0  0  0  0  0
   -5.4858   -5.8521   10.8997 H   0  0  0  0  0  0
   -6.5433   -5.1473    7.5702 H   0  0  0  0  0  0
   -7.0411   -1.1389    9.2731 H   0  0  0  0  0  0
   -9.9593   -0.7234    9.7000 H   0  0  0  0  0  0
   -9.3878   -1.4652   12.3598 H   0  0  0  0  0  0
   -9.8818    0.0101   11.5349 H   0  0  0  0  0  0
   -8.8979    0.0974   12.9690 H   0  0  0  0  0  0
   -6.8871   -2.1647   12.3679 H   0  0  0  0  0  0
   -6.4447   -0.5800   12.9442 H   0  0  0  0  0  0
   -5.7007   -1.2007   11.4847 H   0  0  0  0  0  0
   -8.0940    1.4771   10.3132 H   0  0  0  0  0  0
   -6.4060    1.0006   10.3822 H   0  0  0  0  0  0
   -7.2338    1.5176   11.8386 H   0  0  0  0  0  0
   -8.5675  -12.3872   15.6065 H   0  0  0  0  0  0
   -7.9096  -12.0916   17.2149 H   0  0  0  0  0  0
   -7.9454  -13.7193   16.5596 H   0  0  0  0  0  0
   -2.7855    6.2400   12.4744 H   0  0  0  0  0  0
   -2.4749    7.7700   11.7111 H   0  0  0  0  0  0
   -8.3912   -0.5030    5.9726 H   0  0  0  0  0  0
   -7.2956   -1.0077    7.1878 H   0  0  0  0  0  0
   -2.2169    6.0041   10.0489 H   0  0  0  0  0  0
   -3.5628    7.0040    9.6032 H   0  0  0  0  0  0
   -7.8725    1.9070    7.4582 H   0  0  0  0  0  0
   -7.4290    1.5163    5.8277 H   0  0  0  0  0  0
   -5.1033    5.1912   10.6710 H   0  0  0  0  0  0
   -3.6726    4.2080   10.8378 H   0  0  0  0  0  0
   -5.3098    0.5512    6.5176 H   0  0  0  0  0  0
   -5.6980    0.6691    8.2056 H   0  0  0  0  0  0
   -3.3363    4.3567    8.3254 H   0  0  0  0  0  0
   -4.8199    5.2644    8.2034 H   0  0  0  0  0  0
   -5.6769    3.2383    6.5825 H   0  0  0  0  0  0
   -4.1558    2.4640    6.9104 H   0  0  0  0  0  0
   -6.1197    3.3229    9.1045 H   0  0  0  0  0  0
   -4.6351    2.4506    9.3766 H   0  0  0  0  0  0
   -6.0071    8.5884   15.9376 H   0  0  0  0  0  0
   -5.4478    6.9448   16.0054 H   0  0  0  0  0  0
   -6.5994    8.5159   13.6745 H   0  0  0  0  0  0
   -6.7863    6.7855   13.6232 H   0  0  0  0  0  0
   -4.1227    7.0154   14.1408 H   0  0  0  0  0  0
  1  2  1  0  0  0
  1  6  1  0  0  0
  1 82  1  0  0  0
  2  3  1  0  0  0
  2 87  1  0  0  0
  2 88  1  0  0  0
  3  4  1  0  0  0
  3 89  1  0  0  0
  3 90  1  0  0  0
  4  5  1  0  0  0
  4  7  1  0  0  0
  5  6  1  0  0  0
  5 91  1  0  0  0
  5 92  1  0  0  0
  6 93  1  0  0  0
  6 94  1  0  0  0
  7  8  1  0  0  0
  7 95  1  0  0  0
  7 96  1  0  0  0
  8  9  2  0  0  0
  8 13  1  0  0  0
  9 10  1  0  0  0
  9 97  1  0  0  0
 10 11  2  0  0  0
 10 14  1  0  0  0
 11 12  1  0  0  0
 11 98  1  0  0  0
 12 13  2  0  0  0
 12 99  1  0  0  0
 13100  1  0  0  0
 14 15  2  0  0  0
 14 19  1  0  0  0
 15 16  1  0  0  0
 15101  1  0  0  0
 16 17  2  0  0  0
 16 27  1  0  0  0
 17 18  1  0  0  0
 17 20  1  0  0  0
 18 19  2  0  0  0
 18102  1  0  0  0
 19103  1  0  0  0
 20 21  1  0  0  0
 20 25  1  0  0  0
 21 22  1  0  0  0
 21104  1  0  0  0
 21105  1  0  0  0
 22 23  1  0  0  0
 22106  1  0  0  0
 22107  1  0  0  0
 23 24  1  0  0  0
 23 26  1  0  0  0
 24 25  1  0  0  0
 24108  1  0  0  0
 24109  1  0  0  0
 25110  1  0  0  0
 25111  1  0  0  0
 26112  1  0  0  0
 26113  1  0  0  0
 26114  1  0  0  0
 27 28  1  0  0  0
 27115  1  0  0  0
 28 29  1  0  0  0
 28 36  2  0  0  0
 29 30  2  0  0  0
 29 34  1  0  0  0
 30 31  1  0  0  0
 30116  1  0  0  0
 31 32  1  0  0  0
 31117  1  0  0  0
 32 33  1  0  0  0
 32 37  2  0  0  0
 33 34  2  0  0  0
 33118  1  0  0  0
 34 35  1  0  0  0
 35 38  1  0  0  0
 35 39  1  0  0  0
 35 40  1  0  0  0
 41 42  2  0  0  0
 41 44  1  0  0  0
 41 53  1  0  0  0
 42 54  1  0  0  0
 42 70  1  0  0  0
 43 53  1  0  0  0
 43 54  2  0  0  0
 43119  1  0  0  0
 44 45  2  0  0  0
 44 52  1  0  0  0
 45 47  1  0  0  0
 45120  1  0  0  0
 46 48  1  0  0  0
 46 52  2  0  0  0
 46121  1  0  0  0
 47 48  2  0  0  0
 47122  1  0  0  0
 48 49  1  0  0  0
 49 55  1  0  0  0
 49123  1  0  0  0
 49124  1  0  0  0
 50 55  1  0  0  0
 50 56  2  0  0  0
 50 51  1  0  0  0
 51 57  1  0  0  0
 51 60  1  0  0  0
 51125  1  0  0  0
 52126  1  0  0  0
 55127  1  0  0  0
 57 58  1  0  0  0
 57 61  1  0  0  0
 58 59  1  0  0  0
 58128  1  0  0  0
 58129  1  0  0  0
 59 60  1  0  0  0
 59 62  1  0  0  0
 59130  1  0  0  0
 60131  1  0  0  0
 60132  1  0  0  0
 61 63  2  0  0  0
 61 64  1  0  0  0
 62133  1  0  0  0
 64 65  1  0  0  0
 64 66  1  0  0  0
 64134  1  0  0  0
 65 67  1  0  0  0
 65 68  1  0  0  0
 65 69  1  0  0  0
 66 72  1  0  0  0
 66135  1  0  0  0
 67136  1  0  0  0
 67137  1  0  0  0
 67138  1  0  0  0
 68139  1  0  0  0
 68140  1  0  0  0
 68141  1  0  0  0
 69142  1  0  0  0
 69143  1  0  0  0
 69144  1  0  0  0
 70145  1  0  0  0
 70146  1  0  0  0
 70147  1  0  0  0
 71 73  1  0  0  0
 71 84  1  0  0  0
 71 85  2  0  0  0
 72 74  1  0  0  0
 72 86  2  0  0  0
 73 75  1  0  0  0
 73148  1  0  0  0
 73149  1  0  0  0
 74 76  1  0  0  0
 74150  1  0  0  0
 74151  1  0  0  0
 75 77  1  0  0  0
 75152  1  0  0  0
 75153  1  0  0  0
 76 78  1  0  0  0
 76154  1  0  0  0
 76155  1  0  0  0
 77 79  1  0  0  0
 77156  1  0  0  0
 77157  1  0  0  0
 78 80  1  0  0  0
 78158  1  0  0  0
 78159  1  0  0  0
 79 81  1  0  0  0
 79160  1  0  0  0
 79161  1  0  0  0
 80 81  1  0  0  0
 80162  1  0  0  0
 80163  1  0  0  0
 81164  1  0  0  0
 81165  1  0  0  0
 82 83  1  0  0  0
 82166  1  0  0  0
 82167  1  0  0  0
 83 84  1  0  0  0
 83168  1  0  0  0
 83169  1  0  0  0
 84170  1  0  0  0
M  ISO  4   1 100  66 101  72 101  82 100
M  END
> <chiral flag>
0

> <version>
0

> <s_m_source_file>
/data/baiqing/PycharmProjects/Reinvent-master-3.2/result/LINK_invent/7JTO/scoring_process/rearranged_h_0000.sdf

> <i_m_source_file_index>
1

> <r_mmod_Potential_Energy-OPLS-2005>
20.9102191925049

> <r_mmod_Stretch_Energy-OPLS-2005>
32.9869117736816

> <r_mmod_Bend_Energy-OPLS-2005>
101.456604003906

> <r_mmod_Torsional_Energy-OPLS-2005>
310.112945556641

> <r_mmod_Improper_Torsional_Energy-OPLS-2005>
5.76172685623169

> <r_mmod_Van_der_Waal_Energy-OPLS-2005>
163.743896484375

> <r_mmod_Electrostatic_Energy-OPLS-2005>
-366.847686767578

> <r_mmod_Solvation_Energy-OPLS-2005>
-274.073974609375

> <b_mmod_Minimization_Converged-OPLS-2005>
0

> <r_mmod_RMS_Derivative-OPLS-2005>
3.81532430648804

$$$$
