0
                    3D
 Structure written by MMmdl.
132138  0  0  1  0            999 V2000
  -12.7450    9.3352   15.2519 C   0  0  0  0  0  0
  -13.7883   10.1263   14.7282 C   0  0  0  0  0  0
  -14.2943   11.2164   15.4487 C   0  0  0  0  0  0
  -12.2616    9.6291   16.5423 C   0  0  0  0  0  0
  -12.7809   10.7213   17.2638 C   0  0  0  0  0  0
  -13.7969   11.5563   16.7274 C   0  0  0  0  0  0
  -14.3093   12.7527   17.4502 C   0  0  0  0  0  0
  -13.7154   13.1859   18.6552 C   0  0  0  0  0  0
  -14.1436   14.3454   19.3326 C   0  0  0  0  0  0
  -13.5837   14.6148   20.6027 N   0  0  0  0  0  0
  -12.2765   14.7402   20.8759 C   0  0  0  0  0  0
  -11.4157   14.8280   19.9991 O   0  0  0  0  0  0
  -12.0107   14.7666   22.3092 C   0  0  0  0  0  0
  -11.1904   15.8112   22.9317 C   0  0  0  0  0  0
  -10.6864   17.0265   22.1504 C   0  0  0  0  0  0
  -10.1825   17.9617   22.9592 F   0  0  0  0  0  0
  -11.6744   17.5949   21.4578 F   0  0  0  0  0  0
   -9.7189   16.6744   21.3055 F   0  0  0  0  0  0
  -10.9319   15.7077   24.2619 C   0  0  0  0  0  0
  -11.4193   14.6041   25.0894 C   0  0  0  0  0  0
  -11.1787   14.4911   26.2914 O   0  0  0  0  0  0
  -12.1714   13.6934   24.4434 N   0  0  0  0  0  0
  -12.4646   13.7554   23.0797 C   0  0  0  0  0  0
  -15.4024   13.5173   16.9726 C   0  0  0  0  0  0
  -15.8259   14.6892   17.6260 C   0  0  0  0  0  0
  -15.1854   15.1432   18.7949 C   0  0  0  0  0  0
  -15.5837   16.3823   19.3376 N   0  0  0  0  0  0
  -16.9574   16.5577   19.7991 C   0  0  0  0  0  0
  -17.3811   18.0405   19.6662 C   0  0  0  0  0  0
  -14.6266   17.2970   19.9561 C   0  0  0  0  0  0
  -15.1014   18.7563   19.8029 C   0  0  0  0  0  0
  -16.4424   18.9200   20.3802 N   0  0  0  0  0  0
  -16.8623   20.3108   20.2337 C   0  0  0  0  0  0
   -9.7199    3.5630   12.2132 C   0  0  0  0  0  0
   -8.6060    3.6548   11.6961 O   0  0  0  0  0  0
   -9.9042    3.2668   13.5049 N   0  0  0  0  0  0
   -8.8745    2.6654   14.3542 C   0  0  1  0  0  0
   -8.7971    3.3595   15.7628 C   0  0  0  0  0  0
   -8.6085    4.8825   15.5830 C   0  0  0  0  0  0
   -7.5602    2.8283   16.5237 C   0  0  0  0  0  0
  -10.0432    3.1405   16.6525 C   0  0  0  0  0  0
   -9.2525    1.1634   14.4369 C   0  0  0  0  0  0
  -10.4300    0.8668   14.6770 O   0  0  0  0  0  0
   -8.3242    0.2072   14.2007 N   0  0  0  0  0  0
   -8.5823   -1.2346   14.3596 C   0  0  1  0  0  0
   -7.2365   -1.9191   14.0753 C   0  0  0  0  0  0
   -6.5009   -0.9403   13.1817 C   0  0  1  0  0  0
   -6.8626   -1.1561   11.8252 O   0  0  0  0  0  0
   -7.0082    0.4396   13.6010 C   0  0  0  0  0  0
   -9.0752   -1.6186   15.7667 C   0  0  0  0  0  0
   -8.7196   -0.9763   16.7586 O   0  0  0  0  0  0
   -9.8693   -2.6898   15.8365 N   0  0  0  0  0  0
  -10.3547   -3.3026   17.0656 C   0  0  0  0  0  0
   -9.4676   -4.4291   17.5832 C   0  0  0  0  0  0
   -8.5859   -5.1342   16.7352 C   0  0  0  0  0  0
   -7.8151   -6.1982   17.2395 C   0  0  0  0  0  0
   -7.9042   -6.5837   18.5971 C   0  0  0  0  0  0
   -8.7725   -5.8569   19.4409 C   0  0  0  0  0  0
   -9.5492   -4.7957   18.9400 C   0  0  0  0  0  0
   -7.1277   -7.7191   19.1090 C   0  0  0  0  0  0
   -5.5387   -8.0119   18.4324 S   0  0  0  0  0  0
   -5.3757   -9.3923   19.4950 C   0  0  0  0  0  0
   -6.4267   -9.5977   20.2884 N   0  0  0  0  0  0
   -7.4358   -8.6540   20.0821 C   0  0  0  0  0  0
   -8.6816   -8.7859   20.9043 C   0  0  0  0  0  0
  -12.0639    8.3117   14.3876 C   0  0  0  0  0  0
  -10.9713    3.6929   11.3468 C   0  0  0  0  0  0
  -11.3612    5.1515   11.0919 C   0  0  0  0  0  0
  -11.9657    5.8202   12.3321 C   0  0  0  0  0  0
  -12.1754    7.3168   12.1116 C   0  0  0  0  0  0
  -12.7375    7.9607   13.2858 N   0  0  0  0  0  0
  -10.9414    7.8839   14.6640 O   0  0  0  0  0  0
  -14.1805    9.9629   13.7346 H   0  0  0  0  0  0
  -15.0574   11.8001   14.9602 H   0  0  0  0  0  0
  -11.4563    9.0445   16.9661 H   0  0  0  0  0  0
  -12.3523   10.8962   18.2370 H   0  0  0  0  0  0
  -12.9092   12.6289   19.1014 H   0  0  0  0  0  0
  -14.2352   14.7461   21.3632 H   0  0  0  0  0  0
  -10.3460   16.4689   24.7541 H   0  0  0  0  0  0
  -12.5374   12.9110   24.9698 H   0  0  0  0  0  0
  -13.0446   12.9169   22.7169 H   0  0  0  0  0  0
  -15.9378   13.2480   16.0770 H   0  0  0  0  0  0
  -16.6330   15.2625   17.1930 H   0  0  0  0  0  0
  -17.0324   16.2371   20.8398 H   0  0  0  0  0  0
  -17.6456   15.9282   19.2329 H   0  0  0  0  0  0
  -18.3872   18.1662   20.0709 H   0  0  0  0  0  0
  -17.4326   18.3167   18.6108 H   0  0  0  0  0  0
  -13.6444   17.1863   19.4932 H   0  0  0  0  0  0
  -14.5134   17.0617   21.0155 H   0  0  0  0  0  0
  -15.1004   19.0402   18.7481 H   0  0  0  0  0  0
  -14.3958   19.4197   20.3070 H   0  0  0  0  0  0
  -17.8571   20.4618   20.6560 H   0  0  0  0  0  0
  -16.8926   20.6164   19.1858 H   0  0  0  0  0  0
  -16.1797   20.9806   20.7594 H   0  0  0  0  0  0
  -10.8527    3.1748   13.8403 H   0  0  0  0  0  0
   -7.8994    2.7989   13.8894 H   0  0  0  0  0  0
   -7.7522    5.1054   14.9453 H   0  0  0  0  0  0
   -8.4421    5.3831   16.5376 H   0  0  0  0  0  0
   -9.4824    5.3507   15.1283 H   0  0  0  0  0  0
   -6.6409    2.9860   15.9582 H   0  0  0  0  0  0
   -7.6350    1.7604   16.7328 H   0  0  0  0  0  0
   -7.4367    3.3298   17.4845 H   0  0  0  0  0  0
  -10.9596    3.4371   16.1414 H   0  0  0  0  0  0
   -9.9818    3.7293   17.5687 H   0  0  0  0  0  0
  -10.1559    2.1010   16.9620 H   0  0  0  0  0  0
   -9.3203   -1.5286   13.6107 H   0  0  0  0  0  0
   -7.3489   -2.9114   13.6359 H   0  0  0  0  0  0
   -6.6634   -2.0422   14.9971 H   0  0  0  0  0  0
   -5.4171   -1.0263   13.2806 H   0  0  0  0  0  0
   -7.8049   -1.0479   11.7433 H   0  0  0  0  0  0
   -6.3519    0.8637   14.3628 H   0  0  0  0  0  0
   -7.0331    1.1323   12.7573 H   0  0  0  0  0  0
  -10.1289   -3.1428   14.9709 H   0  0  0  0  0  0
  -11.3473   -3.7116   16.8740 H   0  0  0  0  0  0
  -10.4852   -2.5488   17.8446 H   0  0  0  0  0  0
   -8.5030   -4.8831   15.6873 H   0  0  0  0  0  0
   -7.1676   -6.7324   16.5585 H   0  0  0  0  0  0
   -8.8537   -6.1072   20.4884 H   0  0  0  0  0  0
  -10.2158   -4.2654   19.6063 H   0  0  0  0  0  0
   -4.5091  -10.0386   19.5322 H   0  0  0  0  0  0
   -9.5676   -8.5133   20.3309 H   0  0  0  0  0  0
   -8.6434   -8.1435   21.7839 H   0  0  0  0  0  0
   -8.8298   -9.8083   21.2529 H   0  0  0  0  0  0
  -10.7636    3.2058   10.3931 H   0  0  0  0  0  0
  -11.8024    3.1413   11.7884 H   0  0  0  0  0  0
  -12.0771    5.1961   10.2704 H   0  0  0  0  0  0
  -10.4837    5.7075   10.7568 H   0  0  0  0  0  0
  -11.3082    5.6778   13.1896 H   0  0  0  0  0  0
  -12.9127    5.3414   12.5855 H   0  0  0  0  0  0
  -12.8519    7.4805   11.2718 H   0  0  0  0  0  0
  -11.2324    7.8003   11.8489 H   0  0  0  0  0  0
  -13.6685    8.3418   13.1934 H   0  0  0  0  0  0
  1  2  2  0  0  0
  1  4  1  0  0  0
  1 66  1  0  0  0
  2  3  1  0  0  0
  2 73  1  0  0  0
  3  6  2  0  0  0
  3 74  1  0  0  0
  4  5  2  0  0  0
  4 75  1  0  0  0
  5  6  1  0  0  0
  5 76  1  0  0  0
  6  7  1  0  0  0
  7  8  2  0  0  0
  7 24  1  0  0  0
  8  9  1  0  0  0
  8 77  1  0  0  0
  9 10  1  0  0  0
  9 26  2  0  0  0
 10 11  1  0  0  0
 10 78  1  0  0  0
 11 12  2  0  0  0
 11 13  1  0  0  0
 13 14  1  0  0  0
 13 23  2  0  0  0
 14 15  1  0  0  0
 14 19  2  0  0  0
 15 16  1  0  0  0
 15 17  1  0  0  0
 15 18  1  0  0  0
 19 20  1  0  0  0
 19 79  1  0  0  0
 20 21  2  0  0  0
 20 22  1  0  0  0
 22 23  1  0  0  0
 22 80  1  0  0  0
 23 81  1  0  0  0
 24 25  2  0  0  0
 24 82  1  0  0  0
 25 26  1  0  0  0
 25 83  1  0  0  0
 26 27  1  0  0  0
 27 28  1  0  0  0
 27 30  1  0  0  0
 28 29  1  0  0  0
 28 84  1  0  0  0
 28 85  1  0  0  0
 29 32  1  0  0  0
 29 86  1  0  0  0
 29 87  1  0  0  0
 30 31  1  0  0  0
 30 88  1  0  0  0
 30 89  1  0  0  0
 31 32  1  0  0  0
 31 90  1  0  0  0
 31 91  1  0  0  0
 32 33  1  0  0  0
 33 92  1  0  0  0
 33 93  1  0  0  0
 33 94  1  0  0  0
 34 35  2  0  0  0
 34 36  1  0  0  0
 34 67  1  0  0  0
 36 95  1  0  0  0
 36 37  1  0  0  0
 37 38  1  0  0  0
 37 42  1  0  0  0
 37 96  1  0  0  0
 38 39  1  0  0  0
 38 40  1  0  0  0
 38 41  1  0  0  0
 39 97  1  0  0  0
 39 98  1  0  0  0
 39 99  1  0  0  0
 40100  1  0  0  0
 40101  1  0  0  0
 40102  1  0  0  0
 41103  1  0  0  0
 41104  1  0  0  0
 41105  1  0  0  0
 42 43  2  0  0  0
 42 44  1  0  0  0
 44 45  1  0  0  0
 44 49  1  0  0  0
 45 46  1  0  0  0
 45 50  1  0  0  0
 45106  1  0  0  0
 46 47  1  0  0  0
 46107  1  0  0  0
 46108  1  0  0  0
 47 48  1  0  0  0
 47 49  1  0  0  0
 47109  1  0  0  0
 48110  1  0  0  0
 49111  1  0  0  0
 49112  1  0  0  0
 50 51  2  0  0  0
 50 52  1  0  0  0
 52 53  1  0  0  0
 52113  1  0  0  0
 53 54  1  0  0  0
 53114  1  0  0  0
 53115  1  0  0  0
 54 55  2  0  0  0
 54 59  1  0  0  0
 55 56  1  0  0  0
 55116  1  0  0  0
 56 57  2  0  0  0
 56117  1  0  0  0
 57 58  1  0  0  0
 57 60  1  0  0  0
 58 59  2  0  0  0
 58118  1  0  0  0
 59119  1  0  0  0
 60 61  1  0  0  0
 60 64  2  0  0  0
 61 62  1  0  0  0
 62 63  2  0  0  0
 62120  1  0  0  0
 63 64  1  0  0  0
 64 65  1  0  0  0
 65121  1  0  0  0
 65122  1  0  0  0
 65123  1  0  0  0
 66 71  1  0  0  0
 66 72  2  0  0  0
 67 68  1  0  0  0
 67124  1  0  0  0
 67125  1  0  0  0
 68 69  1  0  0  0
 68126  1  0  0  0
 68127  1  0  0  0
 69 70  1  0  0  0
 69128  1  0  0  0
 69129  1  0  0  0
 70 71  1  0  0  0
 70130  1  0  0  0
 70131  1  0  0  0
 71132  1  0  0  0
M  ISO  4   1 100  34 101  66 100  67 101
M  END
> <chiral flag>
0

> <version>
0

> <s_m_source_file>
/data/baiqing/PycharmProjects/Reinvent-master-3.2/result/LINK_invent/7Q2J/scoring_process/rearranged_h_0000.sdf

> <i_m_source_file_index>
1

> <r_mmod_Potential_Energy-OPLS-2005>
-182.905746459961

> <r_mmod_Stretch_Energy-OPLS-2005>
23.2475452423096

> <r_mmod_Bend_Energy-OPLS-2005>
88.182731628418

> <r_mmod_Torsional_Energy-OPLS-2005>
211.106063842773

> <r_mmod_Improper_Torsional_Energy-OPLS-2005>
5.18598985671997

> <r_mmod_Van_der_Waal_Energy-OPLS-2005>
147.379318237305

> <r_mmod_Electrostatic_Energy-OPLS-2005>
-432.418273925781

> <r_mmod_Solvation_Energy-OPLS-2005>
-236.12939453125

> <b_mmod_Minimization_Converged-OPLS-2005>
0

> <r_mmod_RMS_Derivative-OPLS-2005>
0.457987844944

$$$$
