0
                    3D
 Structure written by MMmdl.
125131  0  0  1  0            999 V2000
  -33.1144   18.0806  -27.4118 N   0  0  0  0  0  0
  -34.1387   17.1134  -26.9659 C   0  0  0  0  0  0
  -34.5333   16.2015  -28.1491 C   0  0  0  0  0  0
  -35.1111   17.0439  -29.1987 N   0  0  0  0  0  0
  -34.1811   18.0708  -29.6699 C   0  0  0  0  0  0
  -33.6861   18.9158  -28.4709 C   0  0  0  0  0  0
  -35.9967   16.4984  -30.1442 C   0  0  0  0  0  0
  -37.3495   16.8868  -30.1394 C   0  0  0  0  0  0
  -38.2239   16.3770  -31.1311 C   0  0  0  0  0  0
  -37.7448   15.5145  -32.0778 N   0  0  0  0  0  0
  -36.4667   15.1193  -32.0875 N   0  0  0  0  0  0
  -35.6108   15.5813  -31.1544 C   0  0  0  0  0  0
  -34.3187   15.1058  -31.2443 N   0  0  0  0  0  0
  -39.6786   16.7357  -31.2187 C   0  0  0  0  0  0
  -40.6443   16.0299  -31.9973 C   0  0  0  0  0  0
  -41.9940   16.4278  -32.0283 C   0  0  0  0  0  0
  -42.4326   17.5272  -31.2736 C   0  0  0  0  0  0
  -41.5096   18.2362  -30.4959 C   0  0  0  0  0  0
  -40.1579   17.8497  -30.4732 C   0  0  0  0  0  0
  -40.3295   14.9415  -32.7638 O   0  0  0  0  0  0
  -30.0010   13.2695  -32.9252 N   0  0  0  0  0  0
  -29.3660   12.7811  -30.6136 C   0  0  0  0  0  0
  -28.8084   15.7980  -30.2359 C   0  0  0  0  0  0
  -31.0908   15.4183  -31.1683 C   0  0  0  0  0  0
  -29.2199   16.1640  -32.6524 C   0  0  0  0  0  0
  -28.3686   11.5124  -28.6946 C   0  0  1  0  0  0
  -26.9055   12.7924  -30.1341 C   0  0  0  0  0  0
  -29.3848   11.9164  -27.6041 C   0  0  0  0  0  0
  -30.4602   11.6672  -23.1915 C   0  0  0  0  0  0
  -29.7786   11.5167  -21.9625 C   0  0  0  0  0  0
  -28.5728   10.7831  -21.8718 C   0  0  0  0  0  0
  -28.7085   10.3521  -24.2741 C   0  0  0  0  0  0
  -28.4154   10.1194  -19.3866 C   0  0  0  0  0  0
  -26.2405   10.3538  -18.8038 C   0  0  0  0  0  0
  -29.1865   13.7685  -31.8023 C   0  0  2  0  0  0
  -29.5847   15.2530  -31.4586 C   0  0  0  0  0  0
  -28.2990   12.4322  -29.8462 N   0  0  0  0  0  0
  -30.4894   12.3039  -30.4143 O   0  0  0  0  0  0
  -26.9538   11.5106  -28.0883 C   0  0  0  0  0  0
  -26.0406   11.9297  -29.2235 C   0  0  1  0  0  0
  -25.6101   10.7962  -29.9601 O   0  0  0  0  0  0
  -29.6640   13.1010  -27.4103 O   0  0  0  0  0  0
  -29.8843   10.9193  -26.8656 N   0  0  0  0  0  0
  -30.7156   11.0705  -25.6720 C   0  0  0  0  0  0
  -29.9357   11.0496  -24.3571 C   0  0  0  0  0  0
  -28.0324   10.2261  -23.0473 C   0  0  0  0  0  0
  -27.9037   10.5706  -20.5887 C   0  0  0  0  0  0
  -27.4549    9.9987  -18.3825 N   0  0  0  0  0  0
  -26.1865   10.8831  -20.4743 S   0  0  0  0  0  0
  -29.8215    9.7167  -19.0707 C   0  0  0  0  0  0
  -29.5450   12.6668  -34.0325 C   0  0  0  0  0  0
  -30.5972   12.1908  -34.9994 C   0  0  0  0  0  0
  -28.3398   12.5190  -34.2482 O   0  0  0  0  0  0
  -31.8788   12.1803  -34.4712 F   0  0  0  0  0  0
  -30.4659   12.5401  -36.4633 C   0  0  0  0  0  0
  -30.2698   11.1105  -36.0083 C   0  0  0  0  0  0
  -31.6128   12.4275  -23.2315 O   0  0  0  0  0  0
  -32.3945   18.8619  -26.3908 C   0  0  0  0  0  0
  -33.1811   19.4049  -25.1781 C   0  0  0  0  0  0
  -31.4338   13.7289  -23.8374 C   0  0  0  0  0  0
  -31.5940   14.9752  -22.9224 C   0  0  0  0  0  0
  -33.8656   17.8840  -23.4680 C   0  0  0  0  0  0
  -33.2365   16.7058  -22.7162 C   0  0  0  0  0  0
  -32.8066   18.5714  -24.0963 O   0  0  0  0  0  0
  -32.3975   15.9537  -23.5920 O   0  0  0  0  0  0
  -35.0370   17.6496  -26.6408 H   0  0  0  0  0  0
  -33.8082   16.5350  -26.1041 H   0  0  0  0  0  0
  -35.1988   15.3931  -27.8475 H   0  0  0  0  0  0
  -33.6086   15.7536  -28.5060 H   0  0  0  0  0  0
  -34.6892   18.7201  -30.3837 H   0  0  0  0  0  0
  -33.3438   17.6274  -30.2077 H   0  0  0  0  0  0
  -32.9575   19.6523  -28.8150 H   0  0  0  0  0  0
  -34.5260   19.4994  -28.0769 H   0  0  0  0  0  0
  -37.6843   17.5608  -29.3620 H   0  0  0  0  0  0
  -33.6441   15.6536  -30.7318 H   0  0  0  0  0  0
  -34.0192   14.8366  -32.1693 H   0  0  0  0  0  0
  -42.7126   15.8865  -32.6265 H   0  0  0  0  0  0
  -43.4725   17.8255  -31.2898 H   0  0  0  0  0  0
  -41.8338   19.0885  -29.9128 H   0  0  0  0  0  0
  -39.4858   18.4372  -29.8714 H   0  0  0  0  0  0
  -39.3883   14.7783  -32.7607 H   0  0  0  0  0  0
  -31.0047   13.2918  -32.8077 H   0  0  0  0  0  0
  -29.0784   16.8349  -30.0285 H   0  0  0  0  0  0
  -27.7330   15.7886  -30.4134 H   0  0  0  0  0  0
  -29.0057   15.2359  -29.3226 H   0  0  0  0  0  0
  -31.3469   16.4599  -30.9728 H   0  0  0  0  0  0
  -31.4020   14.8418  -30.2973 H   0  0  0  0  0  0
  -31.6966   15.0978  -32.0145 H   0  0  0  0  0  0
  -29.4295   17.2124  -32.4354 H   0  0  0  0  0  0
  -29.7854   15.9057  -33.5482 H   0  0  0  0  0  0
  -28.1607   16.0920  -32.9027 H   0  0  0  0  0  0
  -28.6167   10.5190  -29.0720 H   0  0  0  0  0  0
  -26.7545   13.8396  -29.8862 H   0  0  0  0  0  0
  -26.6302   12.6554  -31.1784 H   0  0  0  0  0  0
  -30.1631   12.0008  -21.0743 H   0  0  0  0  0  0
  -28.2951    9.8551  -25.1389 H   0  0  0  0  0  0
  -25.3908   10.3096  -18.1337 H   0  0  0  0  0  0
  -28.1474   13.7917  -32.1217 H   0  0  0  0  0  0
  -26.6809   10.5542  -27.6392 H   0  0  0  0  0  0
  -26.8707   12.2591  -27.2959 H   0  0  0  0  0  0
  -25.1643   12.4714  -28.8635 H   0  0  0  0  0  0
  -26.3825   10.3328  -30.2696 H   0  0  0  0  0  0
  -29.6404    9.9724  -27.1170 H   0  0  0  0  0  0
  -31.4078   10.2298  -25.6266 H   0  0  0  0  0  0
  -31.3389   11.9611  -25.7533 H   0  0  0  0  0  0
  -27.1251    9.6365  -23.0110 H   0  0  0  0  0  0
  -30.0621    8.7637  -19.5436 H   0  0  0  0  0  0
  -30.5326   10.4583  -19.4337 H   0  0  0  0  0  0
  -29.9851    9.5992  -18.0002 H   0  0  0  0  0  0
  -29.5809   13.0891  -36.7806 H   0  0  0  0  0  0
  -31.3799   12.7893  -36.9973 H   0  0  0  0  0  0
  -31.0530   10.3892  -36.2285 H   0  0  0  0  0  0
  -29.2558   10.7153  -36.0333 H   0  0  0  0  0  0
  -31.5420   18.2825  -26.0334 H   0  0  0  0  0  0
  -31.9209   19.7176  -26.8805 H   0  0  0  0  0  0
  -32.8391   20.4078  -24.9095 H   0  0  0  0  0  0
  -34.2628   19.4726  -25.3484 H   0  0  0  0  0  0
  -30.4903   13.7861  -24.3780 H   0  0  0  0  0  0
  -32.1825   13.8137  -24.6162 H   0  0  0  0  0  0
  -30.6240   15.4289  -22.6993 H   0  0  0  0  0  0
  -32.0412   14.7232  -21.9603 H   0  0  0  0  0  0
  -34.3637   18.5774  -22.7859 H   0  0  0  0  0  0
  -34.6103   17.5058  -24.1683 H   0  0  0  0  0  0
  -34.0324   16.0494  -22.3625 H   0  0  0  0  0  0
  -32.6774   17.0640  -21.8489 H   0  0  0  0  0  0
  1  2  1  0  0  0
  1  6  1  0  0  0
  1 58  1  0  0  0
  2  3  1  0  0  0
  2 66  1  0  0  0
  2 67  1  0  0  0
  3  4  1  0  0  0
  3 68  1  0  0  0
  3 69  1  0  0  0
  4  5  1  0  0  0
  4  7  1  0  0  0
  5  6  1  0  0  0
  5 70  1  0  0  0
  5 71  1  0  0  0
  6 72  1  0  0  0
  6 73  1  0  0  0
  7  8  2  0  0  0
  7 12  1  0  0  0
  8  9  1  0  0  0
  8 74  1  0  0  0
  9 10  2  0  0  0
  9 14  1  0  0  0
 10 11  1  0  0  0
 11 12  2  0  0  0
 12 13  1  0  0  0
 13 75  1  0  0  0
 13 76  1  0  0  0
 14 15  2  0  0  0
 14 19  1  0  0  0
 15 16  1  0  0  0
 15 20  1  0  0  0
 16 17  2  0  0  0
 16 77  1  0  0  0
 17 18  1  0  0  0
 17 78  1  0  0  0
 18 19  2  0  0  0
 18 79  1  0  0  0
 19 80  1  0  0  0
 20 81  1  0  0  0
 21 51  1  0  0  0
 21 82  1  0  0  0
 21 35  1  0  0  0
 22 35  1  0  0  0
 22 37  1  0  0  0
 22 38  2  0  0  0
 23 36  1  0  0  0
 23 83  1  0  0  0
 23 84  1  0  0  0
 23 85  1  0  0  0
 24 36  1  0  0  0
 24 86  1  0  0  0
 24 87  1  0  0  0
 24 88  1  0  0  0
 25 36  1  0  0  0
 25 89  1  0  0  0
 25 90  1  0  0  0
 25 91  1  0  0  0
 26 28  1  0  0  0
 26 37  1  0  0  0
 26 39  1  0  0  0
 26 92  1  0  0  0
 27 37  1  0  0  0
 27 40  1  0  0  0
 27 93  1  0  0  0
 27 94  1  0  0  0
 28 42  2  0  0  0
 28 43  1  0  0  0
 29 30  2  0  0  0
 29 45  1  0  0  0
 29 57  1  0  0  0
 30 31  1  0  0  0
 30 95  1  0  0  0
 31 46  2  0  0  0
 31 47  1  0  0  0
 32 45  2  0  0  0
 32 46  1  0  0  0
 32 96  1  0  0  0
 33 47  2  0  0  0
 33 48  1  0  0  0
 33 50  1  0  0  0
 34 48  2  0  0  0
 34 49  1  0  0  0
 34 97  1  0  0  0
 35 36  1  0  0  0
 35 98  1  0  0  0
 39 40  1  0  0  0
 39 99  1  0  0  0
 39100  1  0  0  0
 40 41  1  0  0  0
 40101  1  0  0  0
 41102  1  0  0  0
 43 44  1  0  0  0
 43103  1  0  0  0
 44 45  1  0  0  0
 44104  1  0  0  0
 44105  1  0  0  0
 46106  1  0  0  0
 47 49  1  0  0  0
 50107  1  0  0  0
 50108  1  0  0  0
 50109  1  0  0  0
 51 52  1  0  0  0
 51 53  2  0  0  0
 52 54  1  0  0  0
 52 55  1  0  0  0
 52 56  1  0  0  0
 55 56  1  0  0  0
 55110  1  0  0  0
 55111  1  0  0  0
 56112  1  0  0  0
 56113  1  0  0  0
 57 60  1  0  0  0
 58 59  1  0  0  0
 58114  1  0  0  0
 58115  1  0  0  0
 59 64  1  0  0  0
 59116  1  0  0  0
 59117  1  0  0  0
 60 61  1  0  0  0
 60118  1  0  0  0
 60119  1  0  0  0
 61 65  1  0  0  0
 61120  1  0  0  0
 61121  1  0  0  0
 62 63  1  0  0  0
 62 64  1  0  0  0
 62122  1  0  0  0
 62123  1  0  0  0
 63 65  1  0  0  0
 63124  1  0  0  0
 63125  1  0  0  0
M  ISO  4   1 100  57 101  58 100  60 101
M  END
> <chiral flag>
0

> <version>
0

> <s_m_source_file>
/data/baiqing/PycharmProjects/Reinvent-master-3.2/result/LINK_invent/6HAY/scoring_process/rearranged_h_0000.sdf

> <i_m_source_file_index>
1

> <r_mmod_Potential_Energy-OPLS-2005>
173.705825805664

> <r_mmod_Stretch_Energy-OPLS-2005>
32.9203567504883

> <r_mmod_Bend_Energy-OPLS-2005>
108.396026611328

> <r_mmod_Torsional_Energy-OPLS-2005>
286.111175537109

> <r_mmod_Improper_Torsional_Energy-OPLS-2005>
8.03804206848145

> <r_mmod_Van_der_Waal_Energy-OPLS-2005>
94.2676696777344

> <r_mmod_Electrostatic_Energy-OPLS-2005>
-191.740447998047

> <r_mmod_Solvation_Energy-OPLS-2005>
-194.203155517578

> <b_mmod_Minimization_Converged-OPLS-2005>
0

> <r_mmod_RMS_Derivative-OPLS-2005>
11.2462396621704

$$$$
